                                  MODFLOW-2005     
      U.S. GEOLOGICAL SURVEY MODULAR FINITE-DIFFERENCE GROUND-WATER FLOW MODEL
                            VERSION 1.11.00 8/8/2013

 LIST FILE: l1b2k.lst
                         UNIT    1

 OPENING l1b2k.ba6
 FILE TYPE:BAS6   UNIT    7   STATUS:OLD    
 FORMAT:FORMATTED              ACCESS:SEQUENTIAL          

 OPENING l1b2k.bc6
 FILE TYPE:BCF6   UNIT   10   STATUS:OLD    
 FORMAT:FORMATTED              ACCESS:SEQUENTIAL          

 OPENING l1b2k.evt
 FILE TYPE:EVT   UNIT   11   STATUS:OLD    
 FORMAT:FORMATTED              ACCESS:SEQUENTIAL          

 OPENING l1b2k.rch
 FILE TYPE:RCH   UNIT   12   STATUS:OLD    
 FORMAT:FORMATTED              ACCESS:SEQUENTIAL          

 OPENING l1b2k.sip
 FILE TYPE:SIP   UNIT   13   STATUS:OLD    
 FORMAT:FORMATTED              ACCESS:SEQUENTIAL          

 OPENING l1b2k.oc
 FILE TYPE:OC   UNIT   17   STATUS:OLD    
 FORMAT:FORMATTED              ACCESS:SEQUENTIAL          

 OPENING l1b2k.lak
 FILE TYPE:LAK   UNIT   16   STATUS:OLD    
 FORMAT:FORMATTED              ACCESS:SEQUENTIAL          

 OPENING l1b2k.dis
 FILE TYPE:DIS   UNIT   14   STATUS:OLD    
 FORMAT:FORMATTED              ACCESS:SEQUENTIAL          

 OPENING l1b2k.fhb
 FILE TYPE:FHB   UNIT   21   STATUS:OLD    
 FORMAT:FORMATTED              ACCESS:SEQUENTIAL          

 BAS -- BASIC PACKAGE, VERSION 7, 5/2/2005 INPUT READ FROM UNIT    7
 
 MODFLOW was compiled using mixed precision
 Precision of REAL variables:           6
 Precision of DOUBLE PRECISION variables:          15

 DISCRETIZATION INPUT DATA READ FROM UNIT   14
    5 LAYERS        17 ROWS        17 COLUMNS
    1 STRESS PERIOD(S) IN SIMULATION
 MODEL TIME UNIT IS DAYS
 MODEL LENGTH UNIT IS UNDEFINED
  Confining bed flag for each layer:
   0   0   0   0   0



                               DELR
 READING ON UNIT   14 WITH FORMAT: (10F13.0)           
   250.00      1000.00      1000.00      1000.00      1000.00      1000.00       500.00       500.00       500.00       500.00    
   500.00      1000.00      1000.00      1000.00      1000.00      1000.00       250.00    



                               DELC
 READING ON UNIT   14 WITH FORMAT: (10F13.0)           
   250.00      1000.00      1000.00      1000.00      1000.00      1000.00       500.00       500.00       500.00       500.00    
   500.00      1000.00      1000.00      1000.00      1000.00      1000.00       250.00    

 TOP ELEVATION OF LAYER 1 =   500.000    

   MODEL LAYER BOTTOM EL. =   107.000     FOR LAYER   1

   MODEL LAYER BOTTOM EL. =   97.0000     FOR LAYER   2

   MODEL LAYER BOTTOM EL. =   87.0000     FOR LAYER   3

   MODEL LAYER BOTTOM EL. =   77.0000     FOR LAYER   4

   MODEL LAYER BOTTOM EL. =   67.0000     FOR LAYER   5


 STRESS PERIOD     LENGTH       TIME STEPS     MULTIPLIER FOR DELT    SS FLAG
 ----------------------------------------------------------------------------
        1        1.0000000          1                    1.000         SS

 STEADY-STATE SIMULATION



 
 #Hypothetical simulator of lake and surficial aquifer interaction. ------------ 
 #Shows convergence to equilibrium in transient mode.                            



                     BOUNDARY ARRAY FOR LAYER   1
 READING ON UNIT    7 WITH FORMAT: (20I4)              

        1   2   3   4   5   6   7   8   9  10  11  12  13  14  15  16  17
 ........................................................................
   1   -1  -1  -1  -1  -1  -1  -1  -1  -1  -1  -1  -1  -1  -1  -1  -1  -1
   2   -1   1   1   1   1   1   1   1   1   1   1   1   1   1   1   1  -1
   3   -1   1   1   1   1   1   1   1   1   1   1   1   1   1   1   1  -1
   4   -1   1   1   1   1   1   1   1   1   1   1   1   1   1   1   1  -1
   5   -1   1   1   1   1   1   1   1   1   1   1   1   1   1   1   1  -1
   6   -1   1   1   1   1   1   1   1   1   1   1   1   1   1   1   1  -1
   7   -1   1   1   1   1   1   0   0   0   0   0   1   1   1   1   1  -1
   8   -1   1   1   1   1   1   0   0   0   0   0   1   1   1   1   1  -1
   9   -1   1   1   1   1   1   0   0   0   0   0   1   1   1   1   1  -1
  10   -1   1   1   1   1   1   0   0   0   0   0   1   1   1   1   1  -1
  11   -1   1   1   1   1   1   0   0   0   0   0   1   1   1   1   1  -1
  12   -1   1   1   1   1   1   1   1   1   1   1   1   1   1   1   1  -1
  13   -1   1   1   1   1   1   1   1   1   1   1   1   1   1   1   1  -1
  14   -1   1   1   1   1   1   1   1   1   1   1   1   1   1   1   1  -1
  15   -1   1   1   1   1   1   1   1   1   1   1   1   1   1   1   1  -1
  16   -1   1   1   1   1   1   1   1   1   1   1   1   1   1   1   1  -1
  17   -1  -1  -1  -1  -1  -1  -1  -1  -1  -1  -1  -1  -1  -1  -1  -1  -1



                     BOUNDARY ARRAY FOR LAYER   2
 READING ON UNIT    7 WITH FORMAT: (20I4)              

        1   2   3   4   5   6   7   8   9  10  11  12  13  14  15  16  17
 ........................................................................
   1   -1  -1  -1  -1  -1  -1  -1  -1  -1  -1  -1  -1  -1  -1  -1  -1  -1
   2   -1   1   1   1   1   1   1   1   1   1   1   1   1   1   1   1  -1
   3   -1   1   1   1   1   1   1   1   1   1   1   1   1   1   1   1  -1
   4   -1   1   1   1   1   1   1   1   1   1   1   1   1   1   1   1  -1
   5   -1   1   1   1   1   1   1   1   1   1   1   1   1   1   1   1  -1
   6   -1   1   1   1   1   1   1   1   1   1   1   1   1   1   1   1  -1
   7   -1   1   1   1   1   1   1   1   1   1   1   1   1   1   1   1  -1
   8   -1   1   1   1   1   1   1   0   0   0   1   1   1   1   1   1  -1
   9   -1   1   1   1   1   1   1   0   0   0   1   1   1   1   1   1  -1
  10   -1   1   1   1   1   1   1   0   0   0   1   1   1   1   1   1  -1
  11   -1   1   1   1   1   1   1   1   1   1   1   1   1   1   1   1  -1
  12   -1   1   1   1   1   1   1   1   1   1   1   1   1   1   1   1  -1
  13   -1   1   1   1   1   1   1   1   1   1   1   1   1   1   1   1  -1
  14   -1   1   1   1   1   1   1   1   1   1   1   1   1   1   1   1  -1
  15   -1   1   1   1   1   1   1   1   1   1   1   1   1   1   1   1  -1
  16   -1   1   1   1   1   1   1   1   1   1   1   1   1   1   1   1  -1
  17   -1  -1  -1  -1  -1  -1  -1  -1  -1  -1  -1  -1  -1  -1  -1  -1  -1



                     BOUNDARY ARRAY FOR LAYER   3
 READING ON UNIT    7 WITH FORMAT: (20I4)              

        1   2   3   4   5   6   7   8   9  10  11  12  13  14  15  16  17
 ........................................................................
   1   -1  -1  -1  -1  -1  -1  -1  -1  -1  -1  -1  -1  -1  -1  -1  -1  -1
   2   -1   1   1   1   1   1   1   1   1   1   1   1   1   1   1   1  -1
   3   -1   1   1   1   1   1   1   1   1   1   1   1   1   1   1   1  -1
   4   -1   1   1   1   1   1   1   1   1   1   1   1   1   1   1   1  -1
   5   -1   1   1   1   1   1   1   1   1   1   1   1   1   1   1   1  -1
   6   -1   1   1   1   1   1   1   1   1   1   1   1   1   1   1   1  -1
   7   -1   1   1   1   1   1   1   1   1   1   1   1   1   1   1   1  -1
   8   -1   1   1   1   1   1   1   1   1   1   1   1   1   1   1   1  -1
   9   -1   1   1   1   1   1   1   1   1   1   1   1   1   1   1   1  -1
  10   -1   1   1   1   1   1   1   1   1   1   1   1   1   1   1   1  -1
  11   -1   1   1   1   1   1   1   1   1   1   1   1   1   1   1   1  -1
  12   -1   1   1   1   1   1   1   1   1   1   1   1   1   1   1   1  -1
  13   -1   1   1   1   1   1   1   1   1   1   1   1   1   1   1   1  -1
  14   -1   1   1   1   1   1   1   1   1   1   1   1   1   1   1   1  -1
  15   -1   1   1   1   1   1   1   1   1   1   1   1   1   1   1   1  -1
  16   -1   1   1   1   1   1   1   1   1   1   1   1   1   1   1   1  -1
  17   -1  -1  -1  -1  -1  -1  -1  -1  -1  -1  -1  -1  -1  -1  -1  -1  -1



                     BOUNDARY ARRAY FOR LAYER   4
 READING ON UNIT    7 WITH FORMAT: (20I4)              

        1   2   3   4   5   6   7   8   9  10  11  12  13  14  15  16  17
 ........................................................................
   1   -1  -1  -1  -1  -1  -1  -1  -1  -1  -1  -1  -1  -1  -1  -1  -1  -1
   2   -1   1   1   1   1   1   1   1   1   1   1   1   1   1   1   1  -1
   3   -1   1   1   1   1   1   1   1   1   1   1   1   1   1   1   1  -1
   4   -1   1   1   1   1   1   1   1   1   1   1   1   1   1   1   1  -1
   5   -1   1   1   1   1   1   1   1   1   1   1   1   1   1   1   1  -1
   6   -1   1   1   1   1   1   1   1   1   1   1   1   1   1   1   1  -1
   7   -1   1   1   1   1   1   1   1   1   1   1   1   1   1   1   1  -1
   8   -1   1   1   1   1   1   1   1   1   1   1   1   1   1   1   1  -1
   9   -1   1   1   1   1   1   1   1   1   1   1   1   1   1   1   1  -1
  10   -1   1   1   1   1   1   1   1   1   1   1   1   1   1   1   1  -1
  11   -1   1   1   1   1   1   1   1   1   1   1   1   1   1   1   1  -1
  12   -1   1   1   1   1   1   1   1   1   1   1   1   1   1   1   1  -1
  13   -1   1   1   1   1   1   1   1   1   1   1   1   1   1   1   1  -1
  14   -1   1   1   1   1   1   1   1   1   1   1   1   1   1   1   1  -1
  15   -1   1   1   1   1   1   1   1   1   1   1   1   1   1   1   1  -1
  16   -1   1   1   1   1   1   1   1   1   1   1   1   1   1   1   1  -1
  17   -1  -1  -1  -1  -1  -1  -1  -1  -1  -1  -1  -1  -1  -1  -1  -1  -1



                     BOUNDARY ARRAY FOR LAYER   5
 READING ON UNIT    7 WITH FORMAT: (20I4)              

        1   2   3   4   5   6   7   8   9  10  11  12  13  14  15  16  17
 ........................................................................
   1   -1  -1  -1  -1  -1  -1  -1  -1  -1  -1  -1  -1  -1  -1  -1  -1  -1
   2   -1   1   1   1   1   1   1   1   1   1   1   1   1   1   1   1  -1
   3   -1   1   1   1   1   1   1   1   1   1   1   1   1   1   1   1  -1
   4   -1   1   1   1   1   1   1   1   1   1   1   1   1   1   1   1  -1
   5   -1   1   1   1   1   1   1   1   1   1   1   1   1   1   1   1  -1
   6   -1   1   1   1   1   1   1   1   1   1   1   1   1   1   1   1  -1
   7   -1   1   1   1   1   1   1   1   1   1   1   1   1   1   1   1  -1
   8   -1   1   1   1   1   1   1   1   1   1   1   1   1   1   1   1  -1
   9   -1   1   1   1   1   1   1   1   1   1   1   1   1   1   1   1  -1
  10   -1   1   1   1   1   1   1   1   1   1   1   1   1   1   1   1  -1
  11   -1   1   1   1   1   1   1   1   1   1   1   1   1   1   1   1  -1
  12   -1   1   1   1   1   1   1   1   1   1   1   1   1   1   1   1  -1
  13   -1   1   1   1   1   1   1   1   1   1   1   1   1   1   1   1  -1
  14   -1   1   1   1   1   1   1   1   1   1   1   1   1   1   1   1  -1
  15   -1   1   1   1   1   1   1   1   1   1   1   1   1   1   1   1  -1
  16   -1   1   1   1   1   1   1   1   1   1   1   1   1   1   1   1  -1
  17   -1  -1  -1  -1  -1  -1  -1  -1  -1  -1  -1  -1  -1  -1  -1  -1  -1

 AQUIFER HEAD WILL BE SET TO  -999.00     AT ALL NO-FLOW NODES (IBOUND=0).

             INITIAL HEAD =   115.000     FOR LAYER   1

             INITIAL HEAD =   115.000     FOR LAYER   2

             INITIAL HEAD =   115.000     FOR LAYER   3

             INITIAL HEAD =   115.000     FOR LAYER   4

             INITIAL HEAD =   115.000     FOR LAYER   5

 OUTPUT CONTROL IS SPECIFIED EVERY TIME STEP
 HEAD PRINT FORMAT CODE IS -14    DRAWDOWN PRINT FORMAT CODE IS   9
 HEADS WILL BE SAVED ON UNIT   18    DRAWDOWNS WILL BE SAVED ON UNIT   19

 BCF -- BLOCK-CENTERED FLOW PACKAGE, VERSION 7, 5/2/2005
         INPUT READ FROM UNIT 10
 STEADY-STATE SIMULATION
 HEAD AT CELLS THAT CONVERT TO DRY=   0.0000    
 WETTING CAPABILITY IS ACTIVE
 WETTING FACTOR=   1.00000     WETTING ITERATION INTERVAL=   1
 FLAG THAT SPECIFIES THE EQUATION TO USE FOR HEAD AT WETTED CELLS=   0
      LAYER  LAYER-TYPE CODE     INTERBLOCK T
      --------------------------------------------
         1            1          0 -- HARMONIC    
         2            3          0 -- HARMONIC    
         3            3          0 -- HARMONIC    
         4            3          0 -- HARMONIC    
         5            3          0 -- HARMONIC    

 COLUMN TO ROW ANISOTROPY =  1.000000    

    HYD. COND. ALONG ROWS =   30.0000     FOR LAYER   1

 VERT HYD COND /THICKNESS =   3.00000     FOR LAYER   1



                   WETDRY PARAMETER FOR LAYER   1
 READING ON UNIT   10 WITH FORMAT: (10F13.0)           

         1     2     3     4     5     6     7     8     9    10    11    12    13    14    15    16    17
 .........................................................................................................
   1    0.0   0.0   0.0   0.0   0.0   0.0   0.0   0.0   0.0   0.0   0.0   0.0   0.0   0.0   0.0   0.0   0.0
   2    0.0  -0.2  -0.2  -0.2  -0.2  -0.2  -0.2  -0.2  -0.2  -0.2  -0.2  -0.2  -0.2  -0.2  -0.2  -0.2   0.0
   3    0.0  -0.2  -0.2  -0.2  -0.2  -0.2  -0.2  -0.2  -0.2  -0.2  -0.2  -0.2  -0.2  -0.2  -0.2  -0.2   0.0
   4    0.0  -0.2  -0.2  -0.2  -0.2  -0.2  -0.2  -0.2  -0.2  -0.2  -0.2  -0.2  -0.2  -0.2  -0.2  -0.2   0.0
   5    0.0  -0.2  -0.2  -0.2  -0.2  -0.2  -0.2  -0.2  -0.2  -0.2  -0.2  -0.2  -0.2  -0.2  -0.2  -0.2   0.0
   6    0.0  -0.2  -0.2  -0.2  -0.2  -0.2  -0.2  -0.2  -0.2  -0.2  -0.2  -0.2  -0.2  -0.2  -0.2  -0.2   0.0
   7    0.0  -0.2  -0.2  -0.2  -0.2  -0.2   0.0   0.0   0.0   0.0   0.0  -0.2  -0.2  -0.2  -0.2  -0.2   0.0
   8    0.0  -0.2  -0.2  -0.2  -0.2  -0.2   0.0   0.0   0.0   0.0   0.0  -0.2  -0.2  -0.2  -0.2  -0.2   0.0
   9    0.0  -0.2  -0.2  -0.2  -0.2  -0.2   0.0   0.0   0.0   0.0   0.0  -0.2  -0.2  -0.2  -0.2  -0.2   0.0
  10    0.0  -0.2  -0.2  -0.2  -0.2  -0.2   0.0   0.0   0.0   0.0   0.0  -0.2  -0.2  -0.2  -0.2  -0.2   0.0
  11    0.0  -0.2  -0.2  -0.2  -0.2  -0.2   0.0   0.0   0.0   0.0   0.0  -0.2  -0.2  -0.2  -0.2  -0.2   0.0
  12    0.0  -0.2  -0.2  -0.2  -0.2  -0.2  -0.2  -0.2  -0.2  -0.2  -0.2  -0.2  -0.2  -0.2  -0.2  -0.2   0.0
  13    0.0  -0.2  -0.2  -0.2  -0.2  -0.2  -0.2  -0.2  -0.2  -0.2  -0.2  -0.2  -0.2  -0.2  -0.2  -0.2   0.0
  14    0.0  -0.2  -0.2  -0.2  -0.2  -0.2  -0.2  -0.2  -0.2  -0.2  -0.2  -0.2  -0.2  -0.2  -0.2  -0.2   0.0
  15    0.0  -0.2  -0.2  -0.2  -0.2  -0.2  -0.2  -0.2  -0.2  -0.2  -0.2  -0.2  -0.2  -0.2  -0.2  -0.2   0.0
  16    0.0  -0.2  -0.2  -0.2  -0.2  -0.2  -0.2  -0.2  -0.2  -0.2  -0.2  -0.2  -0.2  -0.2  -0.2  -0.2   0.0
  17    0.0   0.0   0.0   0.0   0.0   0.0   0.0   0.0   0.0   0.0   0.0   0.0   0.0   0.0   0.0   0.0   0.0

    HYD. COND. ALONG ROWS =   30.0000     FOR LAYER   2

 VERT HYD COND /THICKNESS =   3.00000     FOR LAYER   2



                   WETDRY PARAMETER FOR LAYER   2
 READING ON UNIT   10 WITH FORMAT: (10F13.0)           

         1     2     3     4     5     6     7     8     9    10    11    12    13    14    15    16    17
 .........................................................................................................
   1    0.0   0.0   0.0   0.0   0.0   0.0   0.0   0.0   0.0   0.0   0.0   0.0   0.0   0.0   0.0   0.0   0.0
   2    0.0  -0.2  -0.2  -0.2  -0.2  -0.2  -0.2  -0.2  -0.2  -0.2  -0.2  -0.2  -0.2  -0.2  -0.2  -0.2   0.0
   3    0.0  -0.2  -0.2  -0.2  -0.2  -0.2  -0.2  -0.2  -0.2  -0.2  -0.2  -0.2  -0.2  -0.2  -0.2  -0.2   0.0
   4    0.0  -0.2  -0.2  -0.2  -0.2  -0.2  -0.2  -0.2  -0.2  -0.2  -0.2  -0.2  -0.2  -0.2  -0.2  -0.2   0.0
   5    0.0  -0.2  -0.2  -0.2  -0.2  -0.2  -0.2  -0.2  -0.2  -0.2  -0.2  -0.2  -0.2  -0.2  -0.2  -0.2   0.0
   6    0.0  -0.2  -0.2  -0.2  -0.2  -0.2  -0.2  -0.2  -0.2  -0.2  -0.2  -0.2  -0.2  -0.2  -0.2  -0.2   0.0
   7    0.0  -0.2  -0.2  -0.2  -0.2  -0.2  -0.2  -0.2  -0.2  -0.2  -0.2  -0.2  -0.2  -0.2  -0.2  -0.2   0.0
   8    0.0  -0.2  -0.2  -0.2  -0.2  -0.2  -0.2   0.0   0.0   0.0  -0.2  -0.2  -0.2  -0.2  -0.2  -0.2   0.0
   9    0.0  -0.2  -0.2  -0.2  -0.2  -0.2  -0.2   0.0   0.0   0.0  -0.2  -0.2  -0.2  -0.2  -0.2  -0.2   0.0
  10    0.0  -0.2  -0.2  -0.2  -0.2  -0.2  -0.2   0.0   0.0   0.0  -0.2  -0.2  -0.2  -0.2  -0.2  -0.2   0.0
  11    0.0  -0.2  -0.2  -0.2  -0.2  -0.2  -0.2  -0.2  -0.2  -0.2  -0.2  -0.2  -0.2  -0.2  -0.2  -0.2   0.0
  12    0.0  -0.2  -0.2  -0.2  -0.2  -0.2  -0.2  -0.2  -0.2  -0.2  -0.2  -0.2  -0.2  -0.2  -0.2  -0.2   0.0
  13    0.0  -0.2  -0.2  -0.2  -0.2  -0.2  -0.2  -0.2  -0.2  -0.2  -0.2  -0.2  -0.2  -0.2  -0.2  -0.2   0.0
  14    0.0  -0.2  -0.2  -0.2  -0.2  -0.2  -0.2  -0.2  -0.2  -0.2  -0.2  -0.2  -0.2  -0.2  -0.2  -0.2   0.0
  15    0.0  -0.2  -0.2  -0.2  -0.2  -0.2  -0.2  -0.2  -0.2  -0.2  -0.2  -0.2  -0.2  -0.2  -0.2  -0.2   0.0
  16    0.0  -0.2  -0.2  -0.2  -0.2  -0.2  -0.2  -0.2  -0.2  -0.2  -0.2  -0.2  -0.2  -0.2  -0.2  -0.2   0.0
  17    0.0   0.0   0.0   0.0   0.0   0.0   0.0   0.0   0.0   0.0   0.0   0.0   0.0   0.0   0.0   0.0   0.0

    HYD. COND. ALONG ROWS =   30.0000     FOR LAYER   3

 VERT HYD COND /THICKNESS =   3.00000     FOR LAYER   3



                   WETDRY PARAMETER FOR LAYER   3
 READING ON UNIT   10 WITH FORMAT: (10F13.0)           

         1     2     3     4     5     6     7     8     9    10    11    12    13    14    15    16    17
 .........................................................................................................
   1    0.0   0.0   0.0   0.0   0.0   0.0   0.0   0.0   0.0   0.0   0.0   0.0   0.0   0.0   0.0   0.0   0.0
   2    0.0  -0.2  -0.2  -0.2  -0.2  -0.2  -0.2  -0.2  -0.2  -0.2  -0.2  -0.2  -0.2  -0.2  -0.2  -0.2   0.0
   3    0.0  -0.2  -0.2  -0.2  -0.2  -0.2  -0.2  -0.2  -0.2  -0.2  -0.2  -0.2  -0.2  -0.2  -0.2  -0.2   0.0
   4    0.0  -0.2  -0.2  -0.2  -0.2  -0.2  -0.2  -0.2  -0.2  -0.2  -0.2  -0.2  -0.2  -0.2  -0.2  -0.2   0.0
   5    0.0  -0.2  -0.2  -0.2  -0.2  -0.2  -0.2  -0.2  -0.2  -0.2  -0.2  -0.2  -0.2  -0.2  -0.2  -0.2   0.0
   6    0.0  -0.2  -0.2  -0.2  -0.2  -0.2  -0.2  -0.2  -0.2  -0.2  -0.2  -0.2  -0.2  -0.2  -0.2  -0.2   0.0
   7    0.0  -0.2  -0.2  -0.2  -0.2  -0.2  -0.2  -0.2  -0.2  -0.2  -0.2  -0.2  -0.2  -0.2  -0.2  -0.2   0.0
   8    0.0  -0.2  -0.2  -0.2  -0.2  -0.2  -0.2  -0.2  -0.2  -0.2  -0.2  -0.2  -0.2  -0.2  -0.2  -0.2   0.0
   9    0.0  -0.2  -0.2  -0.2  -0.2  -0.2  -0.2  -0.2  -0.2  -0.2  -0.2  -0.2  -0.2  -0.2  -0.2  -0.2   0.0
  10    0.0  -0.2  -0.2  -0.2  -0.2  -0.2  -0.2  -0.2  -0.2  -0.2  -0.2  -0.2  -0.2  -0.2  -0.2  -0.2   0.0
  11    0.0  -0.2  -0.2  -0.2  -0.2  -0.2  -0.2  -0.2  -0.2  -0.2  -0.2  -0.2  -0.2  -0.2  -0.2  -0.2   0.0
  12    0.0  -0.2  -0.2  -0.2  -0.2  -0.2  -0.2  -0.2  -0.2  -0.2  -0.2  -0.2  -0.2  -0.2  -0.2  -0.2   0.0
  13    0.0  -0.2  -0.2  -0.2  -0.2  -0.2  -0.2  -0.2  -0.2  -0.2  -0.2  -0.2  -0.2  -0.2  -0.2  -0.2   0.0
  14    0.0  -0.2  -0.2  -0.2  -0.2  -0.2  -0.2  -0.2  -0.2  -0.2  -0.2  -0.2  -0.2  -0.2  -0.2  -0.2   0.0
  15    0.0  -0.2  -0.2  -0.2  -0.2  -0.2  -0.2  -0.2  -0.2  -0.2  -0.2  -0.2  -0.2  -0.2  -0.2  -0.2   0.0
  16    0.0  -0.2  -0.2  -0.2  -0.2  -0.2  -0.2  -0.2  -0.2  -0.2  -0.2  -0.2  -0.2  -0.2  -0.2  -0.2   0.0
  17    0.0   0.0   0.0   0.0   0.0   0.0   0.0   0.0   0.0   0.0   0.0   0.0   0.0   0.0   0.0   0.0   0.0

    HYD. COND. ALONG ROWS =   30.0000     FOR LAYER   4

 VERT HYD COND /THICKNESS =   3.00000     FOR LAYER   4



                   WETDRY PARAMETER FOR LAYER   4
 READING ON UNIT   10 WITH FORMAT: (10F13.0)           

         1     2     3     4     5     6     7     8     9    10    11    12    13    14    15    16    17
 .........................................................................................................
   1    0.0   0.0   0.0   0.0   0.0   0.0   0.0   0.0   0.0   0.0   0.0   0.0   0.0   0.0   0.0   0.0   0.0
   2    0.0  -0.2  -0.2  -0.2  -0.2  -0.2  -0.2  -0.2  -0.2  -0.2  -0.2  -0.2  -0.2  -0.2  -0.2  -0.2   0.0
   3    0.0  -0.2  -0.2  -0.2  -0.2  -0.2  -0.2  -0.2  -0.2  -0.2  -0.2  -0.2  -0.2  -0.2  -0.2  -0.2   0.0
   4    0.0  -0.2  -0.2  -0.2  -0.2  -0.2  -0.2  -0.2  -0.2  -0.2  -0.2  -0.2  -0.2  -0.2  -0.2  -0.2   0.0
   5    0.0  -0.2  -0.2  -0.2  -0.2  -0.2  -0.2  -0.2  -0.2  -0.2  -0.2  -0.2  -0.2  -0.2  -0.2  -0.2   0.0
   6    0.0  -0.2  -0.2  -0.2  -0.2  -0.2  -0.2  -0.2  -0.2  -0.2  -0.2  -0.2  -0.2  -0.2  -0.2  -0.2   0.0
   7    0.0  -0.2  -0.2  -0.2  -0.2  -0.2  -0.2  -0.2  -0.2  -0.2  -0.2  -0.2  -0.2  -0.2  -0.2  -0.2   0.0
   8    0.0  -0.2  -0.2  -0.2  -0.2  -0.2  -0.2  -0.2  -0.2  -0.2  -0.2  -0.2  -0.2  -0.2  -0.2  -0.2   0.0
   9    0.0  -0.2  -0.2  -0.2  -0.2  -0.2  -0.2  -0.2  -0.2  -0.2  -0.2  -0.2  -0.2  -0.2  -0.2  -0.2   0.0
  10    0.0  -0.2  -0.2  -0.2  -0.2  -0.2  -0.2  -0.2  -0.2  -0.2  -0.2  -0.2  -0.2  -0.2  -0.2  -0.2   0.0
  11    0.0  -0.2  -0.2  -0.2  -0.2  -0.2  -0.2  -0.2  -0.2  -0.2  -0.2  -0.2  -0.2  -0.2  -0.2  -0.2   0.0
  12    0.0  -0.2  -0.2  -0.2  -0.2  -0.2  -0.2  -0.2  -0.2  -0.2  -0.2  -0.2  -0.2  -0.2  -0.2  -0.2   0.0
  13    0.0  -0.2  -0.2  -0.2  -0.2  -0.2  -0.2  -0.2  -0.2  -0.2  -0.2  -0.2  -0.2  -0.2  -0.2  -0.2   0.0
  14    0.0  -0.2  -0.2  -0.2  -0.2  -0.2  -0.2  -0.2  -0.2  -0.2  -0.2  -0.2  -0.2  -0.2  -0.2  -0.2   0.0
  15    0.0  -0.2  -0.2  -0.2  -0.2  -0.2  -0.2  -0.2  -0.2  -0.2  -0.2  -0.2  -0.2  -0.2  -0.2  -0.2   0.0
  16    0.0  -0.2  -0.2  -0.2  -0.2  -0.2  -0.2  -0.2  -0.2  -0.2  -0.2  -0.2  -0.2  -0.2  -0.2  -0.2   0.0
  17    0.0   0.0   0.0   0.0   0.0   0.0   0.0   0.0   0.0   0.0   0.0   0.0   0.0   0.0   0.0   0.0   0.0

    HYD. COND. ALONG ROWS =   30.0000     FOR LAYER   5



                   WETDRY PARAMETER FOR LAYER   5
 READING ON UNIT   10 WITH FORMAT: (10F13.0)           

         1     2     3     4     5     6     7     8     9    10    11    12    13    14    15    16    17
 .........................................................................................................
   1    0.0   0.0   0.0   0.0   0.0   0.0   0.0   0.0   0.0   0.0   0.0   0.0   0.0   0.0   0.0   0.0   0.0
   2    0.0  -0.2  -0.2  -0.2  -0.2  -0.2  -0.2  -0.2  -0.2  -0.2  -0.2  -0.2  -0.2  -0.2  -0.2  -0.2   0.0
   3    0.0  -0.2  -0.2  -0.2  -0.2  -0.2  -0.2  -0.2  -0.2  -0.2  -0.2  -0.2  -0.2  -0.2  -0.2  -0.2   0.0
   4    0.0  -0.2  -0.2  -0.2  -0.2  -0.2  -0.2  -0.2  -0.2  -0.2  -0.2  -0.2  -0.2  -0.2  -0.2  -0.2   0.0
   5    0.0  -0.2  -0.2  -0.2  -0.2  -0.2  -0.2  -0.2  -0.2  -0.2  -0.2  -0.2  -0.2  -0.2  -0.2  -0.2   0.0
   6    0.0  -0.2  -0.2  -0.2  -0.2  -0.2  -0.2  -0.2  -0.2  -0.2  -0.2  -0.2  -0.2  -0.2  -0.2  -0.2   0.0
   7    0.0  -0.2  -0.2  -0.2  -0.2  -0.2  -0.2  -0.2  -0.2  -0.2  -0.2  -0.2  -0.2  -0.2  -0.2  -0.2   0.0
   8    0.0  -0.2  -0.2  -0.2  -0.2  -0.2  -0.2  -0.2  -0.2  -0.2  -0.2  -0.2  -0.2  -0.2  -0.2  -0.2   0.0
   9    0.0  -0.2  -0.2  -0.2  -0.2  -0.2  -0.2  -0.2  -0.2  -0.2  -0.2  -0.2  -0.2  -0.2  -0.2  -0.2   0.0
  10    0.0  -0.2  -0.2  -0.2  -0.2  -0.2  -0.2  -0.2  -0.2  -0.2  -0.2  -0.2  -0.2  -0.2  -0.2  -0.2   0.0
  11    0.0  -0.2  -0.2  -0.2  -0.2  -0.2  -0.2  -0.2  -0.2  -0.2  -0.2  -0.2  -0.2  -0.2  -0.2  -0.2   0.0
  12    0.0  -0.2  -0.2  -0.2  -0.2  -0.2  -0.2  -0.2  -0.2  -0.2  -0.2  -0.2  -0.2  -0.2  -0.2  -0.2   0.0
  13    0.0  -0.2  -0.2  -0.2  -0.2  -0.2  -0.2  -0.2  -0.2  -0.2  -0.2  -0.2  -0.2  -0.2  -0.2  -0.2   0.0
  14    0.0  -0.2  -0.2  -0.2  -0.2  -0.2  -0.2  -0.2  -0.2  -0.2  -0.2  -0.2  -0.2  -0.2  -0.2  -0.2   0.0
  15    0.0  -0.2  -0.2  -0.2  -0.2  -0.2  -0.2  -0.2  -0.2  -0.2  -0.2  -0.2  -0.2  -0.2  -0.2  -0.2   0.0
  16    0.0  -0.2  -0.2  -0.2  -0.2  -0.2  -0.2  -0.2  -0.2  -0.2  -0.2  -0.2  -0.2  -0.2  -0.2  -0.2   0.0
  17    0.0   0.0   0.0   0.0   0.0   0.0   0.0   0.0   0.0   0.0   0.0   0.0   0.0   0.0   0.0   0.0   0.0

 EVT -- EVAPOTRANSPIRATION PACKAGE, VERSION 7, 5/2/2005
         INPUT READ FROM UNIT   11
 No named parameters
 OPTION 3 -- EVAPOTRANSPIRATION FROM HIGHEST ACTIVE NODE IN EACH VERTICAL COLUMN


     0 Evapotranspiration parameters

 RCH -- RECHARGE PACKAGE, VERSION 7, 5/2/2005 INPUT READ FROM UNIT   12
 No named parameters
 OPTION 3 -- RECHARGE TO HIGHEST ACTIVE NODE IN EACH VERTICAL COLUMN


     0 Recharge parameters

 FHB1 -- SPECIFIED FLOW PACKAGE, VERSION 1,12/3/96 INPUT READ FROM 21
  SPECIFIED FLOW AND HEAD VALUES WILL REMAIN CONSTANT FOR ENTIRE SIMULATION.
 FLOW WILL BE SPECIFIED AT A TOTAL OF    0 CELLS.
 HEAD WILL BE SPECIFIED AT A TOTAL OF  320 CELLS.
 FLOW, HEAD, AND AUX VARIABLES AT TIME=0 WILL BE 
 USED IN STEADY-STATE SIMULATIONS.
  0 AUXILIARY VARIABLES FOR SPECIFIED-FLOW CELLS WILL
  BE DEFINED BY FHB FOR USE BY OTHER PACKAGES.
  0 AUXILIARY VARIABLES FOR SPECIFIED-HEAD CELLS WILL
  BE DEFINED BY FHB FOR USE BY OTHER PACKAGES.
 TIMES FOR SPECIFIED-FLOW AND HEAD VALUES WILL BE READ ON UNIT  21 AND
 MULTIPLIED BY  1.0000    .
     1 TIMES FOR SPECIFYING FLOWS AND HEADS:
                       1
                 ------------
                    0.000    

 CELL INDICIES AND SPECIFIED-HEAD VALUES WILL BE READ ON UNIT  21. HEAD VALUES
 WILL BE MULTIPLIED BY  1.0000    .
 LAYER  ROW  COL IAUX             HEAD VALUES
 -------------------------------
    1    1    1   64   160.0    
    1    2    1   64   160.0    
    1    3    1   64   160.0    
    1    4    1   64   160.0    
    1    5    1   64   160.0    
    1    6    1   64   160.0    
    1    7    1   64   160.0    
    1    8    1   64   160.0    
    1    9    1   64   160.0    
    1   10    1   64   160.0    
    1   11    1   64   160.0    
    1   12    1   64   160.0    
    1   13    1   64   160.0    
    1   14    1   64   160.0    
    1   15    1   64   160.0    
    1   16    1   64   160.0    
    1   17    1   64   160.0    
    1    1   17   64   140.0    
    1    2   17   64   140.0    
    1    3   17   64   140.0    
    1    4   17   64   140.0    
    1    5   17   64   140.0    
    1    6   17   64   140.0    
    1    7   17   64   140.0    
    1    8   17   64   140.0    
    1    9   17   64   140.0    
    1   10   17   64   140.0    
    1   11   17   64   140.0    
    1   12   17   64   140.0    
    1   13   17   64   140.0    
    1   14   17   64   140.0    
    1   15   17   64   140.0    
    1   16   17   64   140.0    
    1   17   17   64   140.0    
    2    1    1   64   160.0    
    2    2    1   64   160.0    
    2    3    1   64   160.0    
    2    4    1   64   160.0    
    2    5    1   64   160.0    
    2    6    1   64   160.0    
    2    7    1   64   160.0    
    2    8    1   64   160.0    
    2    9    1   64   160.0    
    2   10    1   64   160.0    
    2   11    1   64   160.0    
    2   12    1   64   160.0    
    2   13    1   64   160.0    
    2   14    1   64   160.0    
    2   15    1   64   160.0    
    2   16    1   64   160.0    
    2   17    1   64   160.0    
    2    1   17   64   140.0    
    2    2   17   64   140.0    
    2    3   17   64   140.0    
    2    4   17   64   140.0    
    2    5   17   64   140.0    
    2    6   17   64   140.0    
    2    7   17   64   140.0    
    2    8   17   64   140.0    
    2    9   17   64   140.0    
    2   10   17   64   140.0    
    2   11   17   64   140.0    
    2   12   17   64   140.0    
    2   13   17   64   140.0    
    2   14   17   64   140.0    
    2   15   17   64   140.0    
    2   16   17   64   140.0    
    2   17   17   64   140.0    
    3    1    1   64   160.0    
    3    2    1   64   160.0    
    3    3    1   64   160.0    
    3    4    1   64   160.0    
    3    5    1   64   160.0    
    3    6    1   64   160.0    
    3    7    1   64   160.0    
    3    8    1   64   160.0    
    3    9    1   64   160.0    
    3   10    1   64   160.0    
    3   11    1   64   160.0    
    3   12    1   64   160.0    
    3   13    1   64   160.0    
    3   14    1   64   160.0    
    3   15    1   64   160.0    
    3   16    1   64   160.0    
    3   17    1   64   160.0    
    3    1   17   64   140.0    
    3    2   17   64   140.0    
    3    3   17   64   140.0    
    3    4   17   64   140.0    
    3    5   17   64   140.0    
    3    6   17   64   140.0    
    3    7   17   64   140.0    
    3    8   17   64   140.0    
    3    9   17   64   140.0    
    3   10   17   64   140.0    
    3   11   17   64   140.0    
    3   12   17   64   140.0    
    3   13   17   64   140.0    
    3   14   17   64   140.0    
    3   15   17   64   140.0    
    3   16   17   64   140.0    
    3   17   17   64   140.0    
    4    1    1   64   160.0    
    4    2    1   64   160.0    
    4    3    1   64   160.0    
    4    4    1   64   160.0    
    4    5    1   64   160.0    
    4    6    1   64   160.0    
    4    7    1   64   160.0    
    4    8    1   64   160.0    
    4    9    1   64   160.0    
    4   10    1   64   160.0    
    4   11    1   64   160.0    
    4   12    1   64   160.0    
    4   13    1   64   160.0    
    4   14    1   64   160.0    
    4   15    1   64   160.0    
    4   16    1   64   160.0    
    4   17    1   64   160.0    
    4    1   17   64   140.0    
    4    2   17   64   140.0    
    4    3   17   64   140.0    
    4    4   17   64   140.0    
    4    5   17   64   140.0    
    4    6   17   64   140.0    
    4    7   17   64   140.0    
    4    8   17   64   140.0    
    4    9   17   64   140.0    
    4   10   17   64   140.0    
    4   11   17   64   140.0    
    4   12   17   64   140.0    
    4   13   17   64   140.0    
    4   14   17   64   140.0    
    4   15   17   64   140.0    
    4   16   17   64   140.0    
    4   17   17   64   140.0    
    5    1    1   64   160.0    
    5    2    1   64   160.0    
    5    3    1   64   160.0    
    5    4    1   64   160.0    
    5    5    1   64   160.0    
    5    6    1   64   160.0    
    5    7    1   64   160.0    
    5    8    1   64   160.0    
    5    9    1   64   160.0    
    5   10    1   64   160.0    
    5   11    1   64   160.0    
    5   12    1   64   160.0    
    5   13    1   64   160.0    
    5   14    1   64   160.0    
    5   15    1   64   160.0    
    5   16    1   64   160.0    
    5   17    1   64   160.0    
    5    1   17   64   140.0    
    5    2   17   64   140.0    
    5    3   17   64   140.0    
    5    4   17   64   140.0    
    5    5   17   64   140.0    
    5    6   17   64   140.0    
    5    7   17   64   140.0    
    5    8   17   64   140.0    
    5    9   17   64   140.0    
    5   10   17   64   140.0    
    5   11   17   64   140.0    
    5   12   17   64   140.0    
    5   13   17   64   140.0    
    5   14   17   64   140.0    
    5   15   17   64   140.0    
    5   16   17   64   140.0    
    5   17   17   64   140.0    
    1    1    2   64   158.9    
    1    1    3   64   157.3    
    1    1    4   64   155.8    
    1    1    5   64   154.2    
    1    1    6   64   152.7    
    1    1    7   64   151.5    
    1    1    8   64   150.8    
    1    1    9   64   150.0    
    1    1   10   64   149.2    
    1    1   11   64   148.5    
    1    1   12   64   147.3    
    1    1   13   64   145.8    
    1    1   14   64   144.2    
    1    1   15   64   142.7    
    1    1   16   64   141.1    
    1   17    2   64   158.9    
    1   17    3   64   157.3    
    1   17    4   64   155.8    
    1   17    5   64   154.2    
    1   17    6   64   152.7    
    1   17    7   64   151.5    
    1   17    8   64   150.8    
    1   17    9   64   150.0    
    1   17   10   64   149.2    
    1   17   11   64   148.5    
    1   17   12   64   147.3    
    1   17   13   64   145.8    
    1   17   14   64   144.2    
    1   17   15   64   142.7    
    1   17   16   64   141.1    
    2    1    2   64   158.9    
    2    1    3   64   157.3    
    2    1    4   64   155.8    
    2    1    5   64   154.2    
    2    1    6   64   152.7    
    2    1    7   64   151.5    
    2    1    8   64   150.8    
    2    1    9   64   150.0    
    2    1   10   64   149.2    
    2    1   11   64   148.5    
    2    1   12   64   147.3    
    2    1   13   64   145.8    
    2    1   14   64   144.2    
    2    1   15   64   142.7    
    2    1   16   64   141.1    
    2   17    2   64   158.9    
    2   17    3   64   157.3    
    2   17    4   64   155.8    
    2   17    5   64   154.2    
    2   17    6   64   152.7    
    2   17    7   64   151.5    
    2   17    8   64   150.8    
    2   17    9   64   150.0    
    2   17   10   64   149.2    
    2   17   11   64   148.5    
    2   17   12   64   147.3    
    2   17   13   64   145.8    
    2   17   14   64   144.2    
    2   17   15   64   142.7    
    2   17   16   64   141.1    
    3    1    2   64   158.9    
    3    1    3   64   157.3    
    3    1    4   64   155.8    
    3    1    5   64   154.2    
    3    1    6   64   152.7    
    3    1    7   64   151.5    
    3    1    8   64   150.8    
    3    1    9   64   150.0    
    3    1   10   64   149.2    
    3    1   11   64   148.5    
    3    1   12   64   147.3    
    3    1   13   64   145.8    
    3    1   14   64   144.2    
    3    1   15   64   142.7    
    3    1   16   64   141.1    
    3   17    2   64   158.9    
    3   17    3   64   157.3    
    3   17    4   64   155.8    
    3   17    5   64   154.2    
    3   17    6   64   152.7    
    3   17    7   64   151.5    
    3   17    8   64   150.8    
    3   17    9   64   150.0    
    3   17   10   64   149.2    
    3   17   11   64   148.5    
    3   17   12   64   147.3    
    3   17   13   64   145.8    
    3   17   14   64   144.2    
    3   17   15   64   142.7    
    3   17   16   64   141.1    
    4    1    2   64   158.9    
    4    1    3   64   157.3    
    4    1    4   64   155.8    
    4    1    5   64   154.2    
    4    1    6   64   152.7    
    4    1    7   64   151.5    
    4    1    8   64   150.8    
    4    1    9   64   150.0    
    4    1   10   64   149.2    
    4    1   11   64   148.5    
    4    1   12   64   147.3    
    4    1   13   64   145.8    
    4    1   14   64   144.2    
    4    1   15   64   142.7    
    4    1   16   64   141.1    
    4   17    2   64   158.9    
    4   17    3   64   157.3    
    4   17    4   64   155.8    
    4   17    5   64   154.2    
    4   17    6   64   152.7    
    4   17    7   64   151.5    
    4   17    8   64   150.8    
    4   17    9   64   150.0    
    4   17   10   64   149.2    
    4   17   11   64   148.5    
    4   17   12   64   147.3    
    4   17   13   64   145.8    
    4   17   14   64   144.2    
    4   17   15   64   142.7    
    4   17   16   64   141.1    
    5    1    2   64   158.9    
    5    1    3   64   157.3    
    5    1    4   64   155.8    
    5    1    5   64   154.2    
    5    1    6   64   152.7    
    5    1    7   64   151.5    
    5    1    8   64   150.8    
    5    1    9   64   150.0    
    5    1   10   64   149.2    
    5    1   11   64   148.5    
    5    1   12   64   147.3    
    5    1   13   64   145.8    
    5    1   14   64   144.2    
    5    1   15   64   142.7    
    5    1   16   64   141.1    
    5   17    2   64   158.9    
    5   17    3   64   157.3    
    5   17    4   64   155.8    
    5   17    5   64   154.2    
    5   17    6   64   152.7    
    5   17    7   64   151.5    
    5   17    8   64   150.8    
    5   17    9   64   150.0    
    5   17   10   64   149.2    
    5   17   11   64   148.5    
    5   17   12   64   147.3    
    5   17   13   64   145.8    
    5   17   14   64   144.2    
    5   17   15   64   142.7    
    5   17   16   64   141.1    

 LAK7 -- LAKE PACKAGE, VERSION 7, 1/07/2013 INPUT READ FROM UNIT 16
 No named parameters
 Model grid will be used to develop 
 volume and area relationship. 
 SPACE ALLOCATION FOR    722 GRID CELL FACES ADJACENT TOLAKES
 MAXIMUM NUMBER OF LAKES IS  1 FOR THIS SIMULATION
 CELL-BY-CELL SEEPAGES WILL NOT BE PRINTED OR SAVED


 NEWTON ITERATION METHOD FOR COMPUTING LAKE STAGE DURING STEADY-STATE STRESS PERIODS HAS BEEN MODIFIED:
 SPECIFIED THETA OF  0.000 WILL BE AUTOMATICALLY CHANGED TO 1.0 FOR ALL STEADY STATE STRESS PERIODS.
 MAXIMUM NUMBER OF STEADY-STATE ITERATIONS (NSSITR) =    50
 CLOSURE CRITERIA FOR STEADY-STATE LAKE STAGE (SSCNCR) = 1.000000E-03



 SIP -- STRONGLY-IMPLICIT PROCEDURE SOLUTION PACKAGE
                    VERSION 7, 5/2/2005 INPUT READ FROM UNIT   13
 MAXIMUM OF 500 ITERATIONS ALLOWED FOR CLOSURE
  5 ITERATION PARAMETERS

          SOLUTION BY THE STRONGLY IMPLICIT PROCEDURE
          -------------------------------------------
 MAXIMUM ITERATIONS ALLOWED FOR CLOSURE =      500
                 ACCELERATION PARAMETER =    1.00000    
      HEAD CHANGE CRITERION FOR CLOSURE =    0.10000E-03
      SIP HEAD CHANGE PRINTOUT INTERVAL =        1

     CALCULATE ITERATION PARAMETERS FROM MODEL CALCULATED WSEED
1
                            STRESS PERIOD NO.    1, LENGTH =  1.0000000    
                            -----------------------------------------------

                              NUMBER OF TIME STEPS =     1

                               MULTIPLIER FOR DELT =     1.000

                            INITIAL TIME STEP SIZE =  1.0000000    



                         ET SURFACE
 READING ON UNIT   11 WITH FORMAT: (19F6.1)            

         1     2     3     4     5     6     7     8     9    10    11    12    13    14    15    16    17
 .........................................................................................................
   1  160.0 159.0 157.4 155.9 154.3 152.7 151.6 150.8 150.0 149.2 148.4 147.3 145.7 144.1 142.6 141.0 140.0
   2  160.0 159.0 157.4 155.9 154.3 152.7 151.6 150.8 150.0 149.2 148.4 147.3 145.7 144.1 142.6 141.0 140.0
   3  160.0 159.0 157.4 155.9 154.3 152.7 151.6 150.8 150.0 149.2 148.4 147.3 145.7 144.1 142.6 141.0 140.0
   4  160.0 159.0 157.4 155.9 154.3 152.7 151.6 150.8 150.0 149.2 148.4 147.3 145.7 144.1 142.6 141.0 140.0
   5  160.0 159.0 157.4 155.9 154.3 152.7 151.6 150.8 150.0 149.2 148.4 147.3 145.7 144.1 142.6 141.0 140.0
   6  160.0 159.0 157.4 155.9 154.3 152.7 151.6 150.8 150.0 149.2 148.4 147.3 145.7 144.1 142.6 141.0 140.0
   7  160.0 159.0 157.4 155.9 154.3 152.7 105.0 105.0 105.0 105.0 105.0 147.3 145.7 144.1 142.6 141.0 140.0
   8  160.0 159.0 157.4 155.9 154.3 152.7 105.0  95.0  95.0  95.0 105.0 147.3 145.7 144.1 142.6 141.0 140.0
   9  160.0 159.0 157.4 155.9 154.3 152.7 105.0  95.0  95.0  95.0 105.0 147.3 145.7 144.1 142.6 141.0 140.0
  10  160.0 159.0 157.4 155.9 154.3 152.7 105.0  95.0  95.0  95.0 105.0 147.3 145.7 144.1 142.6 141.0 140.0
  11  160.0 159.0 157.4 155.9 154.3 152.7 105.0 105.0 105.0 105.0 105.0 147.3 145.7 144.1 142.6 141.0 140.0
  12  160.0 159.0 157.4 155.9 154.3 152.7 151.6 150.8 150.0 149.2 148.4 147.3 145.7 144.1 142.6 141.0 140.0
  13  160.0 159.0 157.4 155.9 154.3 152.7 151.6 150.8 150.0 149.2 148.4 147.3 145.7 144.1 142.6 141.0 140.0
  14  160.0 159.0 157.4 155.9 154.3 152.7 151.6 150.8 150.0 149.2 148.4 147.3 145.7 144.1 142.6 141.0 140.0
  15  160.0 159.0 157.4 155.9 154.3 152.7 151.6 150.8 150.0 149.2 148.4 147.3 145.7 144.1 142.6 141.0 140.0
  16  160.0 159.0 157.4 155.9 154.3 152.7 151.6 150.8 150.0 149.2 148.4 147.3 145.7 144.1 142.6 141.0 140.0
  17  160.0 159.0 157.4 155.9 154.3 152.7 151.6 150.8 150.0 149.2 148.4 147.3 145.7 144.1 142.6 141.0 140.0

  EVAPOTRANSPIRATION RATE =  1.410000E-02

         EXTINCTION DEPTH =   15.0000    

                 RECHARGE =  1.160000E-02


 LAKE PACKAGE ACTIVE:  CALCULATED LAKE STAGE FOR EACH TIME STEP WILL BE STORED IN HNEW ARRAY.



 INITIAL LAKE STAGE:  LAKE    STAGE    SS MIN    SS MAX

                        1   110.000   100.000   170.000




 If any subsequent steady-state stress periods, min. and max. stages for each lake will be read in Record 9a.





                      LAKE ID ARRAY FOR LAYER   1
 READING ON UNIT   16 WITH FORMAT: (24I3)              

        1   2   3   4   5   6   7   8   9  10  11  12  13  14  15  16  17
 ........................................................................
   1    0   0   0   0   0   0   0   0   0   0   0   0   0   0   0   0   0
   2    0   0   0   0   0   0   0   0   0   0   0   0   0   0   0   0   0
   3    0   0   0   0   0   0   0   0   0   0   0   0   0   0   0   0   0
   4    0   0   0   0   0   0   0   0   0   0   0   0   0   0   0   0   0
   5    0   0   0   0   0   0   0   0   0   0   0   0   0   0   0   0   0
   6    0   0   0   0   0   0   0   0   0   0   0   0   0   0   0   0   0
   7    0   0   0   0   0   0   1   1   1   1   1   0   0   0   0   0   0
   8    0   0   0   0   0   0   1   1   1   1   1   0   0   0   0   0   0
   9    0   0   0   0   0   0   1   1   1   1   1   0   0   0   0   0   0
  10    0   0   0   0   0   0   1   1   1   1   1   0   0   0   0   0   0
  11    0   0   0   0   0   0   1   1   1   1   1   0   0   0   0   0   0
  12    0   0   0   0   0   0   0   0   0   0   0   0   0   0   0   0   0
  13    0   0   0   0   0   0   0   0   0   0   0   0   0   0   0   0   0
  14    0   0   0   0   0   0   0   0   0   0   0   0   0   0   0   0   0
  15    0   0   0   0   0   0   0   0   0   0   0   0   0   0   0   0   0
  16    0   0   0   0   0   0   0   0   0   0   0   0   0   0   0   0   0
  17    0   0   0   0   0   0   0   0   0   0   0   0   0   0   0   0   0



                      LAKE ID ARRAY FOR LAYER   2
 READING ON UNIT   16 WITH FORMAT: (24I3)              

        1   2   3   4   5   6   7   8   9  10  11  12  13  14  15  16  17
 ........................................................................
   1    0   0   0   0   0   0   0   0   0   0   0   0   0   0   0   0   0
   2    0   0   0   0   0   0   0   0   0   0   0   0   0   0   0   0   0
   3    0   0   0   0   0   0   0   0   0   0   0   0   0   0   0   0   0
   4    0   0   0   0   0   0   0   0   0   0   0   0   0   0   0   0   0
   5    0   0   0   0   0   0   0   0   0   0   0   0   0   0   0   0   0
   6    0   0   0   0   0   0   0   0   0   0   0   0   0   0   0   0   0
   7    0   0   0   0   0   0   0   0   0   0   0   0   0   0   0   0   0
   8    0   0   0   0   0   0   0   1   1   1   0   0   0   0   0   0   0
   9    0   0   0   0   0   0   0   1   1   1   0   0   0   0   0   0   0
  10    0   0   0   0   0   0   0   1   1   1   0   0   0   0   0   0   0
  11    0   0   0   0   0   0   0   0   0   0   0   0   0   0   0   0   0
  12    0   0   0   0   0   0   0   0   0   0   0   0   0   0   0   0   0
  13    0   0   0   0   0   0   0   0   0   0   0   0   0   0   0   0   0
  14    0   0   0   0   0   0   0   0   0   0   0   0   0   0   0   0   0
  15    0   0   0   0   0   0   0   0   0   0   0   0   0   0   0   0   0
  16    0   0   0   0   0   0   0   0   0   0   0   0   0   0   0   0   0
  17    0   0   0   0   0   0   0   0   0   0   0   0   0   0   0   0   0

            LAKE ID ARRAY =              0 FOR LAYER   3

            LAKE ID ARRAY =              0 FOR LAYER   4

            LAKE ID ARRAY =              0 FOR LAYER   5





   LAKEBED LEAKANCE ARRAY =  1.000000E-01 FOR LAYER   1

   LAKEBED LEAKANCE ARRAY =  1.000000E-01 FOR LAYER   2

   LAKEBED LEAKANCE ARRAY =  1.000000E-01 FOR LAYER   3

   LAKEBED LEAKANCE ARRAY =  1.000000E-01 FOR LAYER   4

   LAKEBED LEAKANCE ARRAY =  1.000000E-01 FOR LAYER   5

       LOCATIONS, LAKE #, INTERFACE TYPE FOR GRID CELLS ADJACENT TO LAKES:
     -----------------------------------------------------------------------
     LAYER #    ROW #    COLUMN #   LAKE #  INTERFACE TYPE  LAKEBED LEAKANCE
         1         7         6         1         2             1.000E-01
         1         8         6         1         2             1.000E-01
         1         9         6         1         2             1.000E-01
         1        10         6         1         2             1.000E-01
         1        11         6         1         2             1.000E-01
         1         6         7         1         3             1.000E-01
         2         7         7         1         6             1.000E-01
         2         8         7         1         6             1.000E-01
         2         8         7         1         2             1.000E-01
         2         9         7         1         6             1.000E-01
         2         9         7         1         2             1.000E-01
         2        10         7         1         6             1.000E-01
         2        10         7         1         2             1.000E-01
         2        11         7         1         6             1.000E-01
         1        12         7         1         4             1.000E-01
         1         6         8         1         3             1.000E-01
         2         7         8         1         6             1.000E-01
         2         7         8         1         3             1.000E-01
         3         8         8         1         6             1.000E-01
         3         9         8         1         6             1.000E-01
         3        10         8         1         6             1.000E-01
         2        11         8         1         6             1.000E-01
         2        11         8         1         4             1.000E-01
         1        12         8         1         4             1.000E-01
         1         6         9         1         3             1.000E-01
         2         7         9         1         6             1.000E-01
         2         7         9         1         3             1.000E-01
         3         8         9         1         6             1.000E-01
         3         9         9         1         6             1.000E-01
         3        10         9         1         6             1.000E-01
         2        11         9         1         6             1.000E-01
         2        11         9         1         4             1.000E-01
         1        12         9         1         4             1.000E-01
         1         6        10         1         3             1.000E-01
         2         7        10         1         6             1.000E-01
         2         7        10         1         3             1.000E-01
         3         8        10         1         6             1.000E-01
         3         9        10         1         6             1.000E-01
         3        10        10         1         6             1.000E-01
         2        11        10         1         6             1.000E-01
         2        11        10         1         4             1.000E-01
         1        12        10         1         4             1.000E-01
         1         6        11         1         3             1.000E-01
         2         7        11         1         6             1.000E-01
         2         8        11         1         6             1.000E-01
         2         8        11         1         1             1.000E-01
         2         9        11         1         6             1.000E-01
         2         9        11         1         1             1.000E-01
         2        10        11         1         6             1.000E-01
         2        10        11         1         1             1.000E-01
         2        11        11         1         6             1.000E-01
         1        12        11         1         4             1.000E-01
         1         7        12         1         1             1.000E-01
         1         8        12         1         1             1.000E-01
         1         9        12         1         1             1.000E-01
         1        10        12         1         1             1.000E-01
         1        11        12         1         1             1.000E-01

     NUMBER OF LAKE-AQUIFER CELL INTERFACES =    57


 STAGE/VOLUME RELATION FOR LAKE  1

      STAGE        VOLUME        AREA

   9.70000E+01   0.00000E+00   2.25000E+06
   9.96867E+01   6.04500E+06   2.25000E+06
   1.02373E+02   1.20900E+07   2.25000E+06
   1.05060E+02   1.81350E+07   2.25000E+06
   1.07747E+02   3.49267E+07   6.25000E+06
   1.10433E+02   5.17183E+07   6.25000E+06
   1.13120E+02   6.85100E+07   6.25000E+06
   1.15807E+02   8.53017E+07   6.25000E+06
   1.18493E+02   1.02093E+08   6.25000E+06
   1.21180E+02   1.18885E+08   6.25000E+06
   1.23867E+02   1.35677E+08   6.25000E+06
   1.26553E+02   1.52468E+08   6.25000E+06
   1.29240E+02   1.69260E+08   6.25000E+06
   1.31927E+02   1.86052E+08   6.25000E+06
   1.34613E+02   2.02843E+08   6.25000E+06
   1.37300E+02   2.19635E+08   6.25000E+06
   1.39987E+02   2.36427E+08   6.25000E+06
   1.42673E+02   2.53218E+08   6.25000E+06
   1.45360E+02   2.70010E+08   6.25000E+06
   1.48047E+02   2.86802E+08   6.25000E+06
   1.50733E+02   3.03593E+08   6.25000E+06
   1.53420E+02   3.20385E+08   6.25000E+06
   1.56107E+02   3.37177E+08   6.25000E+06
   1.58793E+02   3.53968E+08   6.25000E+06
   1.61480E+02   3.70760E+08   6.25000E+06
   1.64167E+02   3.87552E+08   6.25000E+06
   1.66853E+02   4.04343E+08   6.25000E+06
   1.69540E+02   4.21135E+08   6.25000E+06
   1.72227E+02   4.37927E+08   6.25000E+06
   1.74913E+02   4.54718E+08   6.25000E+06
   1.77600E+02   4.71510E+08   6.25000E+06
   1.80287E+02   4.88302E+08   6.25000E+06
   1.82973E+02   5.05093E+08   6.25000E+06
   1.85660E+02   5.21885E+08   6.25000E+06
   1.88347E+02   5.38677E+08   6.25000E+06
   1.91033E+02   5.55468E+08   6.25000E+06
   1.93720E+02   5.72260E+08   6.25000E+06
   1.96407E+02   5.89052E+08   6.25000E+06
   1.99093E+02   6.05843E+08   6.25000E+06
   2.01780E+02   6.22635E+08   6.25000E+06
   2.04467E+02   6.39427E+08   6.25000E+06
   2.07153E+02   6.56218E+08   6.25000E+06
   2.09840E+02   6.73010E+08   6.25000E+06
   2.12527E+02   6.89802E+08   6.25000E+06
   2.15213E+02   7.06593E+08   6.25000E+06
   2.17900E+02   7.23385E+08   6.25000E+06
   2.20586E+02   7.40177E+08   6.25000E+06
   2.23273E+02   7.56968E+08   6.25000E+06
   2.25960E+02   7.73760E+08   6.25000E+06
   2.28646E+02   7.90552E+08   6.25000E+06
   2.31333E+02   8.07343E+08   6.25000E+06
   2.34020E+02   8.24135E+08   6.25000E+06
   2.36706E+02   8.40927E+08   6.25000E+06
   2.39393E+02   8.57718E+08   6.25000E+06
   2.42080E+02   8.74510E+08   6.25000E+06
   2.44766E+02   8.91302E+08   6.25000E+06
   2.47453E+02   9.08093E+08   6.25000E+06
   2.50140E+02   9.24885E+08   6.25000E+06
   2.52826E+02   9.41677E+08   6.25000E+06
   2.55513E+02   9.58468E+08   6.25000E+06
   2.58200E+02   9.75260E+08   6.25000E+06
   2.60886E+02   9.92052E+08   6.25000E+06
   2.63573E+02   1.00884E+09   6.25000E+06
   2.66260E+02   1.02564E+09   6.25000E+06
   2.68946E+02   1.04243E+09   6.25000E+06
   2.71633E+02   1.05922E+09   6.25000E+06
   2.74320E+02   1.07601E+09   6.25000E+06
   2.77006E+02   1.09280E+09   6.25000E+06
   2.79693E+02   1.10959E+09   6.25000E+06
   2.82380E+02   1.12639E+09   6.25000E+06
   2.85066E+02   1.14318E+09   6.25000E+06
   2.87753E+02   1.15997E+09   6.25000E+06
   2.90440E+02   1.17676E+09   6.25000E+06
   2.93127E+02   1.19355E+09   6.25000E+06
   2.95813E+02   1.21034E+09   6.25000E+06
   2.98500E+02   1.22714E+09   6.25000E+06
   3.01187E+02   1.24393E+09   6.25000E+06
   3.03873E+02   1.26072E+09   6.25000E+06
   3.06560E+02   1.27751E+09   6.25000E+06
   3.09247E+02   1.29430E+09   6.25000E+06
   3.11933E+02   1.31109E+09   6.25000E+06
   3.14620E+02   1.32789E+09   6.25000E+06
   3.17307E+02   1.34468E+09   6.25000E+06
   3.19993E+02   1.36147E+09   6.25000E+06
   3.22680E+02   1.37826E+09   6.25000E+06
   3.25367E+02   1.39505E+09   6.25000E+06
   3.28053E+02   1.41184E+09   6.25000E+06
   3.30740E+02   1.42864E+09   6.25000E+06
   3.33427E+02   1.44543E+09   6.25000E+06
   3.36113E+02   1.46222E+09   6.25000E+06
   3.38800E+02   1.47901E+09   6.25000E+06
   3.41487E+02   1.49580E+09   6.25000E+06
   3.44173E+02   1.51259E+09   6.25000E+06
   3.46860E+02   1.52939E+09   6.25000E+06
   3.49547E+02   1.54618E+09   6.25000E+06
   3.52233E+02   1.56297E+09   6.25000E+06
   3.54920E+02   1.57976E+09   6.25000E+06
   3.57607E+02   1.59655E+09   6.25000E+06
   3.60293E+02   1.61334E+09   6.25000E+06
   3.62980E+02   1.63014E+09   6.25000E+06
   3.65667E+02   1.64693E+09   6.25000E+06
   3.68353E+02   1.66372E+09   6.25000E+06
   3.71040E+02   1.68051E+09   6.25000E+06
   3.73727E+02   1.69730E+09   6.25000E+06
   3.76413E+02   1.71409E+09   6.25000E+06
   3.79100E+02   1.73089E+09   6.25000E+06
   3.81787E+02   1.74768E+09   6.25000E+06
   3.84474E+02   1.76447E+09   6.25000E+06
   3.87160E+02   1.78126E+09   6.25000E+06
   3.89847E+02   1.79805E+09   6.25000E+06
   3.92534E+02   1.81484E+09   6.25000E+06
   3.95220E+02   1.83164E+09   6.25000E+06
   3.97907E+02   1.84843E+09   6.25000E+06
   4.00594E+02   1.86522E+09   6.25000E+06
   4.03280E+02   1.88201E+09   6.25000E+06
   4.05967E+02   1.89880E+09   6.25000E+06
   4.08654E+02   1.91559E+09   6.25000E+06
   4.11340E+02   1.93239E+09   6.25000E+06
   4.14027E+02   1.94918E+09   6.25000E+06
   4.16714E+02   1.96597E+09   6.25000E+06
   4.19400E+02   1.98276E+09   6.25000E+06
   4.22087E+02   1.99955E+09   6.25000E+06
   4.24774E+02   2.01634E+09   6.25000E+06
   4.27460E+02   2.03314E+09   6.25000E+06
   4.30147E+02   2.04993E+09   6.25000E+06
   4.32834E+02   2.06672E+09   6.25000E+06
   4.35520E+02   2.08351E+09   6.25000E+06
   4.38207E+02   2.10030E+09   6.25000E+06
   4.40894E+02   2.11709E+09   6.25000E+06
   4.43580E+02   2.13389E+09   6.25000E+06
   4.46267E+02   2.15068E+09   6.25000E+06
   4.48954E+02   2.16747E+09   6.25000E+06
   4.51640E+02   2.18426E+09   6.25000E+06
   4.54327E+02   2.20105E+09   6.25000E+06
   4.57014E+02   2.21784E+09   6.25000E+06
   4.59700E+02   2.23464E+09   6.25000E+06
   4.62387E+02   2.25143E+09   6.25000E+06
   4.65074E+02   2.26822E+09   6.25000E+06
   4.67760E+02   2.28501E+09   6.25000E+06
   4.70447E+02   2.30180E+09   6.25000E+06
   4.73134E+02   2.31859E+09   6.25000E+06
   4.75820E+02   2.33539E+09   6.25000E+06
   4.78507E+02   2.35218E+09   6.25000E+06
   4.81194E+02   2.36897E+09   6.25000E+06
   4.83881E+02   2.38576E+09   6.25000E+06
   4.86567E+02   2.40255E+09   6.25000E+06
   4.89254E+02   2.41934E+09   6.25000E+06
   4.91941E+02   2.43614E+09   6.25000E+06
   4.94627E+02   2.45293E+09   6.25000E+06
   4.97314E+02   2.46972E+09   6.25000E+06
   5.00001E+02   2.48651E+09   6.25000E+06


 NUMBER OF CONNECTED LAKE SYSTEMS IN SIMULATION IS   0

 LAKE       PRECIP     EVAP     RUNOFF   WITHDRAW   BOTTOM     AREA
----------------------------------------------------------------------
   1     1.160E-02 1.030E-02 0.000E+00  0.000E+00 9.700E+01 6.250E+06




         C               INTERFACE CONDUCTANCES BETWEEN LAKE AND AQUIFER CELLS
   L     O          (IF TYPE = 6, CONDUCTANCE (L^2/T) IS BETWEEN AQUIFER CELL AND OVERLYING LAKE CELL.)
   A     L  L  T    (IF TYPE = 1 TO 4, CONDUCTANCES ARE PER UNIT SATURATED THICKNESS (L/T).)
   Y  R  U  A  Y
   E  O  M  K  P                        LAKEBED      C O N D U C T A N C E S
   R  W  N  E  E     DELTA Y   DELTA X  LEAKANCE   LAKEBED   AQUIFER  COMBINED
 _______________________________________________________________________________
   1  7  6  1  2    5.00E+02  1.00E+03  1.00E-01  5.00E+01  3.00E+01  1.875E+01
   1  8  6  1  2    5.00E+02  1.00E+03  1.00E-01  5.00E+01  3.00E+01  1.875E+01
   1  9  6  1  2    5.00E+02  1.00E+03  1.00E-01  5.00E+01  3.00E+01  1.875E+01
   1 10  6  1  2    5.00E+02  1.00E+03  1.00E-01  5.00E+01  3.00E+01  1.875E+01
   1 11  6  1  2    5.00E+02  1.00E+03  1.00E-01  5.00E+01  3.00E+01  1.875E+01
   1  6  7  1  3    1.00E+03  5.00E+02  1.00E-01  5.00E+01  3.00E+01  1.875E+01
   2  7  7  1  6    5.00E+02  5.00E+02  1.00E-01  2.50E+04  1.50E+06  2.459E+04
   2  8  7  1  6    5.00E+02  5.00E+02  1.00E-01  2.50E+04  1.50E+06  2.459E+04
   2  8  7  1  2    5.00E+02  5.00E+02  1.00E-01  5.00E+01  6.00E+01  2.727E+01
   2  9  7  1  6    5.00E+02  5.00E+02  1.00E-01  2.50E+04  1.50E+06  2.459E+04
   2  9  7  1  2    5.00E+02  5.00E+02  1.00E-01  5.00E+01  6.00E+01  2.727E+01
   2 10  7  1  6    5.00E+02  5.00E+02  1.00E-01  2.50E+04  1.50E+06  2.459E+04
   2 10  7  1  2    5.00E+02  5.00E+02  1.00E-01  5.00E+01  6.00E+01  2.727E+01
   2 11  7  1  6    5.00E+02  5.00E+02  1.00E-01  2.50E+04  1.50E+06  2.459E+04
   1 12  7  1  4    1.00E+03  5.00E+02  1.00E-01  5.00E+01  3.00E+01  1.875E+01
   1  6  8  1  3    1.00E+03  5.00E+02  1.00E-01  5.00E+01  3.00E+01  1.875E+01
   2  7  8  1  6    5.00E+02  5.00E+02  1.00E-01  2.50E+04  1.50E+06  2.459E+04
   2  7  8  1  3    5.00E+02  5.00E+02  1.00E-01  5.00E+01  6.00E+01  2.727E+01
   3  8  8  1  6    5.00E+02  5.00E+02  1.00E-01  2.50E+04  1.50E+06  2.459E+04
   3  9  8  1  6    5.00E+02  5.00E+02  1.00E-01  2.50E+04  1.50E+06  2.459E+04
   3 10  8  1  6    5.00E+02  5.00E+02  1.00E-01  2.50E+04  1.50E+06  2.459E+04
   2 11  8  1  6    5.00E+02  5.00E+02  1.00E-01  2.50E+04  1.50E+06  2.459E+04
   2 11  8  1  4    5.00E+02  5.00E+02  1.00E-01  5.00E+01  6.00E+01  2.727E+01
   1 12  8  1  4    1.00E+03  5.00E+02  1.00E-01  5.00E+01  3.00E+01  1.875E+01
   1  6  9  1  3    1.00E+03  5.00E+02  1.00E-01  5.00E+01  3.00E+01  1.875E+01
   2  7  9  1  6    5.00E+02  5.00E+02  1.00E-01  2.50E+04  1.50E+06  2.459E+04
   2  7  9  1  3    5.00E+02  5.00E+02  1.00E-01  5.00E+01  6.00E+01  2.727E+01
   3  8  9  1  6    5.00E+02  5.00E+02  1.00E-01  2.50E+04  1.50E+06  2.459E+04
   3  9  9  1  6    5.00E+02  5.00E+02  1.00E-01  2.50E+04  1.50E+06  2.459E+04
   3 10  9  1  6    5.00E+02  5.00E+02  1.00E-01  2.50E+04  1.50E+06  2.459E+04
   2 11  9  1  6    5.00E+02  5.00E+02  1.00E-01  2.50E+04  1.50E+06  2.459E+04
   2 11  9  1  4    5.00E+02  5.00E+02  1.00E-01  5.00E+01  6.00E+01  2.727E+01
   1 12  9  1  4    1.00E+03  5.00E+02  1.00E-01  5.00E+01  3.00E+01  1.875E+01
   1  6 10  1  3    1.00E+03  5.00E+02  1.00E-01  5.00E+01  3.00E+01  1.875E+01
   2  7 10  1  6    5.00E+02  5.00E+02  1.00E-01  2.50E+04  1.50E+06  2.459E+04
   2  7 10  1  3    5.00E+02  5.00E+02  1.00E-01  5.00E+01  6.00E+01  2.727E+01
   3  8 10  1  6    5.00E+02  5.00E+02  1.00E-01  2.50E+04  1.50E+06  2.459E+04
   3  9 10  1  6    5.00E+02  5.00E+02  1.00E-01  2.50E+04  1.50E+06  2.459E+04
   3 10 10  1  6    5.00E+02  5.00E+02  1.00E-01  2.50E+04  1.50E+06  2.459E+04
   2 11 10  1  6    5.00E+02  5.00E+02  1.00E-01  2.50E+04  1.50E+06  2.459E+04
   2 11 10  1  4    5.00E+02  5.00E+02  1.00E-01  5.00E+01  6.00E+01  2.727E+01
   1 12 10  1  4    1.00E+03  5.00E+02  1.00E-01  5.00E+01  3.00E+01  1.875E+01
   1  6 11  1  3    1.00E+03  5.00E+02  1.00E-01  5.00E+01  3.00E+01  1.875E+01
   2  7 11  1  6    5.00E+02  5.00E+02  1.00E-01  2.50E+04  1.50E+06  2.459E+04
   2  8 11  1  6    5.00E+02  5.00E+02  1.00E-01  2.50E+04  1.50E+06  2.459E+04
   2  8 11  1  1    5.00E+02  5.00E+02  1.00E-01  5.00E+01  6.00E+01  2.727E+01
   2  9 11  1  6    5.00E+02  5.00E+02  1.00E-01  2.50E+04  1.50E+06  2.459E+04
   2  9 11  1  1    5.00E+02  5.00E+02  1.00E-01  5.00E+01  6.00E+01  2.727E+01
   2 10 11  1  6    5.00E+02  5.00E+02  1.00E-01  2.50E+04  1.50E+06  2.459E+04
   2 10 11  1  1    5.00E+02  5.00E+02  1.00E-01  5.00E+01  6.00E+01  2.727E+01
   2 11 11  1  6    5.00E+02  5.00E+02  1.00E-01  2.50E+04  1.50E+06  2.459E+04
   1 12 11  1  4    1.00E+03  5.00E+02  1.00E-01  5.00E+01  3.00E+01  1.875E+01
   1  7 12  1  1    5.00E+02  1.00E+03  1.00E-01  5.00E+01  3.00E+01  1.875E+01
   1  8 12  1  1    5.00E+02  1.00E+03  1.00E-01  5.00E+01  3.00E+01  1.875E+01
   1  9 12  1  1    5.00E+02  1.00E+03  1.00E-01  5.00E+01  3.00E+01  1.875E+01
   1 10 12  1  1    5.00E+02  1.00E+03  1.00E-01  5.00E+01  3.00E+01  1.875E+01
   1 11 12  1  1    5.00E+02  1.00E+03  1.00E-01  5.00E+01  3.00E+01  1.875E+01


     NOTE: INFORMATION ABOUT CALCULATED LAKE/AQUIFER CONDUCTANCES WHEN USING BCF PACKAGE FOLLOWS: 

 IF WETDRY FLAG NOT TURNED ON, VERTICAL LEAKANCES ARE NOT SAVED:
 THEREFORE, LAKE/AQUIFER CONDUCTANCES ARE BASED SOLELY ON LAKEBED SPECIFICATION




 
 SOLVING FOR HEAD 

 AVERAGE SEED = 0.00000194
 MINIMUM SEED = 0.00000137

     5 ITERATION PARAMETERS CALCULATED FROM AVERAGE SEED:

  0.000000E+00 0.962690E+00 0.998608E+00 0.999948E+00 0.999998E+00

   476 ITERATIONS FOR TIME STEP   1 IN STRESS PERIOD    1

 MAXIMUM HEAD CHANGE FOR EACH ITERATION:

    HEAD CHANGE   HEAD CHANGE   HEAD CHANGE   HEAD CHANGE   HEAD CHANGE
  LAYER,ROW,COL LAYER,ROW,COL LAYER,ROW,COL LAYER,ROW,COL LAYER,ROW,COL
 ----------------------------------------------------------------------
      30.76         17.73         14.37         27.25         7.574    
  (  1,  2,  2) (  1,  3,  3) (  5, 14,  3) (  1,  8,  4) (  5, 12,  6)
      1.055        0.8802         1.145        0.9846        0.6372    
  (  1, 13,  3) (  5,  6,  8) (  1,  6,  9) (  5,  6, 10) (  2,  8, 11)
     0.8307        0.5907        0.7517        0.5902        0.8456    
  (  2, 11,  7) (  5,  9,  9) (  5, 10,  8) (  3,  8, 10) (  3, 10,  8)
     0.5684        0.5713        0.5453        0.8003        0.5541    
  (  2,  7,  7) (  5, 10,  8) (  3,  8, 10) (  3, 10,  8) (  2,  8, 11)
     0.7189        0.5150        0.6547        0.5122        0.7309    
  (  2,  7,  7) (  5,  9,  9) (  5, 10,  8) (  3,  8, 10) (  3, 10,  8)
     0.4911        0.4903        0.4672        0.6848        0.4719    
  (  2,  7,  7) (  5, 10,  8) (  3,  8, 10) (  3, 10,  8) (  2,  8, 11)
     0.6121        0.4385        0.5571        0.4352        0.6211    
  (  2,  7,  7) (  5,  9,  9) (  5, 10,  8) (  3,  8, 10) (  3, 10,  8)
     0.4165        0.4160        0.3960        0.5804        0.4000    
  (  2,  7,  7) (  5, 10,  8) (  3,  8, 10) (  3, 10,  8) (  2,  8, 11)
     0.5186        0.3713        0.4715        0.3680        0.5251    
  (  2,  7,  7) (  5,  9,  9) (  5, 10,  8) (  3,  8, 10) (  3, 10,  8)
     0.3516        0.3513        0.3342        0.4898        0.3374    
  (  2,  7,  7) (  5, 10,  8) (  3,  8, 10) (  3, 10,  8) (  2,  8, 11)
     0.4374        0.3130        0.3973        0.3098        0.4421    
  (  2,  7,  7) (  5,  9,  9) (  5, 10,  8) (  3,  8, 10) (  3, 10,  8)
     0.2956        0.2955        0.2809        0.4116        0.2836    
  (  2,  7,  7) (  5, 10,  8) (  3,  8, 10) (  3, 10,  8) (  2,  8, 11)
     0.3675        0.2629        0.3335        0.2600        0.3710    
  (  2,  7,  7) (  5,  9,  9) (  5, 10,  8) (  3,  8, 10) (  3, 10,  8)
     0.2478        0.2477        0.2353        0.3449        0.2376    
  (  2,  7,  7) (  5, 10,  8) (  3,  8, 10) (  3, 10,  8) (  2,  8, 11)
     0.3078        0.2201        0.2792        0.2175        0.3103    
  (  2,  7,  7) (  5,  9,  9) (  5, 10,  8) (  3,  8, 10) (  3, 10,  8)
     0.2070        0.2070        0.1966        0.2881        0.1985    
  (  2,  7,  7) (  5, 10,  8) (  3,  8, 10) (  3, 10,  8) (  2,  8, 11)
     0.2572        0.1838        0.2330        0.1815        0.2589    
  (  2,  7,  7) (  5,  9,  9) (  5, 10,  8) (  3,  8, 10) (  3, 10,  8)
     0.1726        0.1726        0.1639        0.2402        0.1654    
  (  2,  7,  7) (  5, 10,  8) (  3,  8, 10) (  3, 10,  8) (  2,  8, 11)
     0.2143        0.1531        0.1941        0.1511        0.2156    
  (  2,  7,  7) (  5,  9,  9) (  5, 10,  8) (  3,  8, 10) (  3, 10,  8)
     0.1437        0.1437        0.1364        0.1998        0.1376    
  (  2,  7,  7) (  5, 10,  8) (  3,  8, 10) (  3, 10,  8) (  2,  8, 11)
     0.1783        0.1273        0.1614        0.1256        0.1792    
  (  2,  7,  7) (  5,  9,  9) (  5, 10,  8) (  3,  8, 10) (  3, 10,  8)
     0.1194        0.1194        0.1133        0.1660        0.1143    
  (  2,  7,  7) (  5, 10,  8) (  3,  8, 10) (  3, 10,  8) (  2,  8, 11)
     0.1481        0.1057        0.1340        0.1043        0.1488    
  (  2,  7,  7) (  5,  9,  9) (  5, 10,  8) (  3,  8, 10) (  3, 10,  8)
     0.9903E-01    0.9906E-01    0.9397E-01    0.1377        0.9482E-01
  (  2,  7,  7) (  5, 10,  8) (  3,  8, 10) (  3, 10,  8) (  2,  8, 11)
     0.1228        0.8770E-01    0.1111        0.8644E-01    0.1233    
  (  2,  7,  7) (  5,  9,  9) (  5, 10,  8) (  3,  8, 10) (  3, 10,  8)
     0.8207E-01    0.8210E-01    0.7787E-01    0.1141        0.7857E-01
  (  2,  7,  7) (  5, 10,  8) (  3,  8, 10) (  3, 10,  8) (  2,  8, 11)
     0.1018        0.7266E-01    0.9206E-01    0.7158E-01    0.1021    
  (  2,  7,  7) (  5,  9,  9) (  5, 10,  8) (  3,  8, 10) (  3, 10,  8)
     0.6795E-01    0.6798E-01    0.6448E-01    0.9446E-01    0.6504E-01
  (  2,  7,  7) (  5, 10,  8) (  3,  8, 10) (  3, 10,  8) (  2,  8, 11)
     0.8424E-01    0.6014E-01    0.7620E-01    0.5924E-01    0.8453E-01
  (  2,  7,  7) (  5,  9,  9) (  5, 10,  8) (  3,  8, 10) (  3, 10,  8)
     0.5622E-01    0.5624E-01    0.5333E-01    0.7814E-01    0.5382E-01
  (  2,  7,  7) (  5, 10,  8) (  3,  8, 10) (  3, 10,  8) (  2,  8, 11)
     0.6969E-01    0.4974E-01    0.6302E-01    0.4899E-01    0.6991E-01
  (  2,  7,  7) (  5,  9,  9) (  5, 10,  8) (  3,  8, 10) (  3, 10,  8)
     0.4648E-01    0.4650E-01    0.4409E-01    0.6461E-01    0.4449E-01
  (  2,  7,  7) (  5, 10,  8) (  3,  8, 10) (  3, 10,  8) (  2,  8, 11)
     0.5761E-01    0.4112E-01    0.5209E-01    0.4049E-01    0.5778E-01
  (  2,  7,  7) (  5,  9,  9) (  5, 10,  8) (  3,  8, 10) (  3, 10,  8)
     0.3841E-01    0.3843E-01    0.3643E-01    0.5338E-01    0.3675E-01
  (  2,  7,  7) (  5, 10,  8) (  3,  8, 10) (  3, 10,  8) (  2,  8, 11)
     0.4761E-01    0.3397E-01    0.4304E-01    0.3345E-01    0.4773E-01
  (  2,  7,  7) (  5,  9,  9) (  5, 10,  8) (  3,  8, 10) (  3, 10,  8)
     0.3172E-01    0.3175E-01    0.3010E-01    0.4409E-01    0.3036E-01
  (  2,  7,  7) (  5, 10,  8) (  3,  8, 10) (  3, 10,  8) (  2,  8, 11)
     0.3932E-01    0.2806E-01    0.3554E-01    0.2762E-01    0.3942E-01
  (  2,  7,  7) (  5,  9,  9) (  5, 10,  8) (  3,  8, 10) (  3, 10,  8)
     0.2619E-01    0.2622E-01    0.2485E-01    0.3640E-01    0.2506E-01
  (  2,  7,  7) (  5, 10,  8) (  3,  8, 10) (  3, 10,  8) (  2,  8, 11)
     0.3246E-01    0.2317E-01    0.2934E-01    0.2280E-01    0.3254E-01
  (  2,  7,  7) (  5,  9,  9) (  5, 10,  8) (  3,  8, 10) (  3, 10,  8)
     0.2162E-01    0.2163E-01    0.2052E-01    0.3005E-01    0.2069E-01
  (  2,  7,  7) (  5, 10,  8) (  3,  8, 10) (  3, 10,  8) (  2,  8, 11)
     0.2680E-01    0.1912E-01    0.2422E-01    0.1882E-01    0.2686E-01
  (  2,  7,  7) (  5,  9,  9) (  5, 10,  8) (  3,  8, 10) (  3, 10,  8)
     0.1785E-01    0.1786E-01    0.1693E-01    0.2480E-01    0.1708E-01
  (  2,  7,  7) (  5, 10,  8) (  3,  8, 10) (  3, 10,  8) (  2,  8, 11)
     0.2211E-01    0.1578E-01    0.1998E-01    0.1553E-01    0.2216E-01
  (  2,  7,  7) (  5,  9,  9) (  5, 10,  8) (  3,  8, 10) (  3, 10,  8)
     0.1472E-01    0.1474E-01    0.1397E-01    0.2046E-01    0.1408E-01
  (  2,  7,  7) (  5, 10,  8) (  3,  8, 10) (  3, 10,  8) (  2,  8, 11)
     0.1824E-01    0.1302E-01    0.1649E-01    0.1282E-01    0.1829E-01
  (  2,  7,  7) (  5,  9,  9) (  5, 10,  8) (  3,  8, 10) (  3, 10,  8)
     0.1215E-01    0.1216E-01    0.1152E-01    0.1687E-01    0.1162E-01
  (  2,  7,  7) (  5, 10,  8) (  3,  8, 10) (  3, 10,  8) (  2,  8, 11)
     0.1505E-01    0.1073E-01    0.1360E-01    0.1057E-01    0.1508E-01
  (  2,  7,  7) (  5,  9,  9) (  5, 10,  8) (  3,  8, 10) (  3, 10,  8)
     0.1002E-01    0.1003E-01    0.9500E-02    0.1392E-01    0.9590E-02
  (  2,  7,  7) (  5, 10,  8) (  3,  8, 10) (  3, 10,  8) (  2,  8, 11)
     0.1242E-01    0.8855E-02    0.1122E-01    0.8713E-02    0.1243E-01
  (  2,  7,  7) (  5,  9,  9) (  5, 10,  8) (  3,  8, 10) (  3, 10,  8)
     0.8259E-02    0.8272E-02    0.7842E-02    0.1148E-01    0.7907E-02
  (  2,  7,  7) (  5, 10,  8) (  3,  8, 10) (  3, 10,  8) (  2,  8, 11)
     0.1023E-01    0.7304E-02    0.9248E-02    0.7190E-02    0.1026E-01
  (  2,  7,  7) (  5,  9,  9) (  5, 10,  8) (  3,  8, 10) (  3, 10,  8)
     0.6810E-02    0.6818E-02    0.6459E-02    0.9461E-02    0.6513E-02
  (  2,  7,  7) (  5, 10,  8) (  3,  8, 10) (  3, 10,  8) (  2,  8, 11)
     0.8438E-02    0.6020E-02    0.7635E-02    0.5929E-02    0.8459E-02
  (  2,  7,  7) (  5,  9,  9) (  5, 10,  8) (  3,  8, 10) (  3, 10,  8)
     0.5617E-02    0.5620E-02    0.5330E-02    0.7813E-02    0.5378E-02
  (  2,  7,  7) (  5, 10,  8) (  3,  8, 10) (  3, 10,  8) (  2,  8, 11)
     0.6964E-02    0.4969E-02    0.6292E-02    0.4890E-02    0.6981E-02
  (  2,  7,  7) (  5,  9,  9) (  5, 10,  8) (  3,  8, 10) (  3, 10,  8)
     0.4636E-02    0.4641E-02    0.4394E-02    0.6441E-02    0.4431E-02
  (  2,  7,  7) (  5, 10,  8) (  3,  8, 10) (  3, 10,  8) (  2,  8, 11)
     0.5735E-02    0.4088E-02    0.5183E-02    0.4033E-02    0.5752E-02
  (  2,  7,  7) (  5,  9,  9) (  5, 10,  8) (  3,  8, 10) (  3, 10,  8)
     0.3819E-02    0.3820E-02    0.3621E-02    0.5307E-02    0.3655E-02
  (  2,  7,  7) (  5, 10,  8) (  3,  8, 10) (  3, 10,  8) (  2,  8, 11)
     0.4734E-02    0.3376E-02    0.4275E-02    0.3318E-02    0.4735E-02
  (  2,  7,  7) (  5,  9,  9) (  5, 10,  8) (  3,  8, 10) (  3, 10,  8)
     0.3146E-02    0.3153E-02    0.2981E-02    0.4374E-02    0.3008E-02
  (  2,  7,  7) (  5, 10,  8) (  3,  8, 10) (  3, 10,  8) (  2,  8, 11)
     0.3901E-02    0.2782E-02    0.3529E-02    0.2743E-02    0.3915E-02
  (  2,  7,  7) (  5,  9,  9) (  5, 10,  8) (  3,  8, 10) (  3, 10,  8)
     0.2595E-02    0.2598E-02    0.2461E-02    0.3611E-02    0.2480E-02
  (  2,  7,  7) (  5, 10,  8) (  3,  8, 10) (  3, 10,  8) (  2,  8, 11)
     0.3213E-02    0.2293E-02    0.2908E-02    0.2260E-02    0.3226E-02
  (  2,  7,  7) (  5,  9,  9) (  5, 10,  8) (  2,  8, 11) (  3, 10,  8)
     0.2137E-02    0.2142E-02    0.2024E-02    0.2974E-02    0.2042E-02
  (  2,  7,  7) (  5, 10,  8) (  3,  8, 10) (  3, 10,  8) (  2,  8, 11)
     0.2654E-02    0.1891E-02    0.2395E-02    0.1865E-02    0.2656E-02
  (  2,  7,  7) (  5,  9,  9) (  5, 10,  8) (  3,  8, 10) (  3, 10,  8)
     0.1761E-02    0.1765E-02    0.1668E-02    0.2449E-02    0.1693E-02
  (  2,  7,  7) (  5, 10,  8) (  3,  8, 10) (  3, 10,  8) (  2,  8, 11)
     0.2183E-02    0.1560E-02    0.1972E-02    0.1532E-02    0.2187E-02
  (  2,  7,  7) (  5,  9,  9) (  5, 10,  8) (  3,  8, 10) (  3, 10,  8)
     0.1457E-02    0.1455E-02    0.1383E-02    0.2020E-02    0.1385E-02
  (  2,  7,  7) (  5, 10,  8) (  3,  8, 10) (  4, 10,  8) (  3,  8, 10)
     0.1804E-02    0.1285E-02    0.1623E-02    0.1264E-02    0.1808E-02
  (  2,  7,  7) (  5,  9,  9) (  5, 10,  8) (  2,  8, 11) (  3, 10,  8)
     0.1196E-02    0.1199E-02    0.1139E-02    0.1667E-02    0.1145E-02
  (  2,  7,  7) (  5, 10,  8) (  3,  8, 10) (  3, 10,  8) (  2,  8, 11)
     0.1483E-02    0.1061E-02    0.1347E-02    0.1049E-02    0.1488E-02
  (  2,  7,  7) (  5,  9,  9) (  5, 10,  8) (  3,  8, 10) (  3, 10,  8)
     0.9919E-03    0.9886E-03    0.9358E-03    0.1372E-02    0.9461E-03
  (  2,  7,  7) (  5, 10,  8) (  3,  8, 10) (  4, 10,  8) (  2,  8, 11)
     0.1227E-02    0.8712E-03    0.1106E-02    0.8572E-03    0.1229E-02
  (  2,  7,  7) (  5,  9,  9) (  5, 10,  8) (  3,  8, 10) (  3, 10,  8)
     0.8147E-03    0.8109E-03    0.7730E-03    0.1134E-02    0.7825E-03
  (  2,  7,  7) (  5, 10,  8) (  3,  8, 10) (  4, 10,  8) (  3,  8, 10)
     0.1010E-02    0.7218E-03    0.9108E-03    0.7068E-03    0.1009E-02
  (  2,  7,  7) (  5,  9,  9) (  5, 10,  8) (  2,  8, 11) (  3, 10,  8)
     0.6704E-03    0.6770E-03    0.6405E-03    0.9334E-03    0.6472E-03
  (  2,  7,  7) (  5, 10,  8) (  3,  8, 10) (  3, 10,  8) (  2,  8, 11)
     0.8313E-03    0.5944E-03    0.7460E-03    0.5872E-03    0.8390E-03
  (  2,  7,  7) (  5,  9,  9) (  5, 10,  8) (  2,  8, 11) (  3, 10,  8)
     0.5542E-03    0.5551E-03    0.5295E-03    0.7715E-03    0.5376E-03
  (  2,  7,  7) (  5, 10,  8) (  2,  9, 11) (  3, 10,  8) (  2,  8, 11)
     0.6900E-03    0.4887E-03    0.6208E-03    0.4838E-03    0.6892E-03
  (  2,  7,  7) (  5,  9,  9) (  5, 10,  8) (  3,  8, 10) (  3, 10,  8)
     0.4562E-03    0.4554E-03    0.4370E-03    0.6376E-03    0.4380E-03
  (  2,  7,  7) (  5, 10,  8) (  3,  8, 10) (  3, 10,  8) (  2,  8, 11)
     0.5680E-03    0.4037E-03    0.5142E-03    0.3931E-03    0.5690E-03
  (  2,  7,  7) (  5,  9,  9) (  5, 10,  8) (  3,  8, 10) (  3, 10,  8)
     0.3793E-03    0.3779E-03    0.3597E-03    0.5244E-03    0.3612E-03
  (  2,  7,  7) (  5, 10,  8) (  2,  9, 11) (  5, 10,  8) (  3,  8, 10)
     0.4627E-03    0.3291E-03    0.4221E-03    0.3226E-03    0.4591E-03
  (  2,  7,  7) (  5,  9,  9) (  5, 10,  8) (  3,  8, 10) (  3, 10,  8)
     0.3110E-03    0.3112E-03    0.2948E-03    0.4288E-03    0.3010E-03
  (  2,  7,  7) (  5, 10,  8) (  3,  8, 10) (  5, 10,  8) (  3,  8, 10)
     0.3863E-03    0.2760E-03    0.3492E-03    0.2721E-03    0.3892E-03
  (  2,  7,  7) (  5,  9,  9) (  5, 10,  8) (  3,  8, 10) (  3, 10,  8)
     0.2535E-03    0.2553E-03    0.2440E-03    0.3519E-03    0.2408E-03
  (  2,  7,  7) (  5, 10,  8) (  3,  8, 10) (  3, 10,  8) (  3,  8, 10)
     0.3123E-03    0.2229E-03    0.2864E-03    0.2218E-03    0.3194E-03
  (  2,  7,  7) (  5,  9,  9) (  5, 10,  8) (  3,  8, 10) (  3, 10,  8)
     0.2138E-03    0.2122E-03    0.2033E-03    0.2949E-03    0.2007E-03
  (  2,  7,  7) (  5,  9,  7) (  3,  8, 10) (  3, 10,  8) (  3,  8, 10)
     0.2647E-03    0.1814E-03    0.2286E-03    0.1814E-03    0.2595E-03
  (  2,  7,  7) (  5,  9,  9) (  5, 10,  8) (  3,  8, 10) (  3, 10,  8)
     0.1751E-03    0.1772E-03    0.1628E-03    0.2388E-03    0.1705E-03
  (  2,  7,  7) (  5, 10,  8) (  3,  8, 10) (  5, 10,  8) (  3,  8, 10)
     0.2158E-03    0.1588E-03    0.1982E-03    0.1512E-03    0.2095E-03
  (  2,  7,  7) (  4,  9,  9) (  5, 10,  8) (  3,  8, 10) (  3, 10,  8)
     0.1456E-03    0.1449E-03    0.1323E-03    0.2005E-03    0.1405E-03
  (  2,  7,  7) (  5, 10,  8) (  3,  8, 10) (  3, 10,  8) (  3,  8, 10)
     0.1796E-03    0.1274E-03    0.1547E-03    0.1292E-03    0.1812E-03
  (  2,  7,  7) (  5,  9,  9) (  5, 10,  8) (  2,  9, 11) (  2, 11,  9)
     0.1158E-03    0.1214E-03    0.1119E-03    0.1618E-03    0.1104E-03
  (  2,  7,  7) (  5, 10,  8) (  3,  8, 10) (  3, 10,  8) (  3,  8, 10)
     0.1420E-03    0.1057E-03    0.1354E-03    0.1093E-03    0.1526E-03
  (  2,  7,  7) (  4,  9,  9) (  5, 10,  8) (  2,  9, 11) (  2, 11,  9)
     0.9641E-04
  (  2,  7,  7)


 HEAD/DRAWDOWN PRINTOUT FLAG = 1     TOTAL BUDGET PRINTOUT FLAG = 1
 CELL-BY-CELL FLOW TERM FLAG = 1

 OUTPUT FLAGS FOR EACH LAYER:
          HEAD    DRAWDOWN  HEAD  DRAWDOWN
 LAYER  PRINTOUT  PRINTOUT  SAVE    SAVE
 -----------------------------------------
    1       0         0       0       0
    2       0         0       0       0
    3       0         0       0       0
    4       0         0       0       0
    5       1         0       0       0


     0  LAKE CELLS ARE DRY.

 PERIOD     1     TIME STEP     1     TIME STEP LENGTH  1.0000E+00
 PERIOD TIME  1.0000E+00     TOTAL SIMULATION TIME  1.0000E+00


                 HYDROLOGIC BUDGET SUMMARIES FOR SIMULATED LAKES
     (ALL FLUID FLUXES ARE VOLUMES ADDED TO THE LAKE DURING PRESENT TIME STEP)
     ----------------------------------------------------------------------------------------
 LAKE    STAGE         VOLUME     VOL. CHANGE      PRECIP     EVAPORATION        RUNOFF
   1  1.482843E+02  2.882870E+08     N/A (SS)   7.250000E+04  6.437500E+04  0.000000E+00

            GROUND WATER            SURFACE WATER        WATER
 LAKE    INFLOW     OUTFLOW      INFLOW     OUTFLOW       USE
   1  1.6887E+04  2.4955E+04  0.0000E+00  0.0000E+00  0.0000E+00

      CONNECTED LAKE   TIME-STEP         STAGE-CHANGE          PERCENT
 LAKE    INFLUX      SURFACE AREA   TIME STEP  CUMULATIVE    DISCREPANCY
   1   0.0000E+00     6.2500E+06     N/A (SS)   N/A (SS)        0.063
 --------------------------------------------------------------------------------



            CUMULATIVE HYDROLOGIC BUDGET SUMMARIES FOR SIMULATED LAKES
     (ALL FLUID FLUXES ARE SUMS OF VOLUMES ADDED TO THE LAKE SINCE INITIAL TIME)
     ---------------------------------------------------------------------------
 LAKE       PRECIP       EVAP       RUNOFF
   1     7.2500E+04  6.4375E+04  0.0000E+00

            GROUND WATER            SURFACE WATER
 LAKE    INFLOW     OUTFLOW      INFLOW     OUTFLOW
   1  1.6887E+04  2.4955E+04  0.0000E+00  0.0000E+00

         WATER    CONNECTED LAKE   CHANGE       PERCENT
 LAKE     USE         INFLUX       IN VOL.    DISCREPANCY
   1   0.0000E+00   0.0000E+00    N/A (SS)       0.063
 --------------------------------------------------------------------------------

1
              HEAD IN LAYER   5 AT END OF TIME STEP   1 IN STRESS PERIOD    1
  ---------------------------------------------------------------------------

          1      2      3      4      5      6      7      8      9     10
 .........................................................................
   1   160.0  158.9  157.3  155.8  154.2  152.7  151.5  150.8  150.0  149.2
   2   160.0  158.6  156.7  155.1  153.4  151.9  150.7  149.9  149.1  148.4
   3   160.0  158.4  156.3  154.5  152.8  151.1  150.0  149.2  148.4  147.6
   4   160.0  158.3  156.1  154.2  152.4  150.8  149.6  148.8  148.1  147.3
   5   160.0  158.2  155.9  154.0  152.2  150.5  149.4  148.6  147.9  147.2
   6   160.0  158.2  155.9  153.9  152.1  150.3  149.1  148.5  148.0  147.5
   7   160.0  158.2  155.9  153.8  152.0  150.1  148.4  148.3  148.3  148.3
   8   160.0  158.2  155.8  153.8  151.9  150.0  148.3  148.3  148.3  148.3
   9   160.0  158.2  155.8  153.8  151.9  150.0  148.3  148.3  148.3  148.3
  10   160.0  158.2  155.8  153.8  151.9  150.0  148.3  148.3  148.3  148.3
  11   160.0  158.2  155.9  153.8  152.0  150.1  148.4  148.3  148.3  148.3
  12   160.0  158.2  155.9  153.9  152.1  150.3  149.1  148.5  148.0  147.5
  13   160.0  158.2  155.9  154.0  152.2  150.5  149.4  148.6  147.9  147.2
  14   160.0  158.3  156.1  154.2  152.4  150.8  149.6  148.8  148.1  147.3
  15   160.0  158.4  156.3  154.5  152.8  151.1  150.0  149.2  148.4  147.6
  16   160.0  158.6  156.7  155.1  153.4  151.9  150.7  149.9  149.1  148.4
  17   160.0  158.9  157.3  155.8  154.2  152.7  151.5  150.8  150.0  149.2
1
              HEAD IN LAYER   5 AT END OF TIME STEP   1 IN STRESS PERIOD    1
  ---------------------------------------------------------------------------

         11     12     13     14     15     16     17
 ....................................................
   1   148.5  147.3  145.8  144.2  142.7  141.1  140.0
   2   147.6  146.4  144.9  143.4  141.9  140.6  140.0
   3   146.9  145.7  144.2  142.7  141.4  140.3  140.0
   4   146.5  145.4  143.8  142.4  141.1  140.2  140.0
   5   146.5  145.3  143.7  142.3  141.0  140.1  140.0
   6   146.8  145.5  143.8  142.2  141.0  140.1  140.0
   7   148.2  145.9  143.9  142.3  141.0  140.1  140.0
   8   148.2  146.0  143.9  142.3  141.0  140.1  140.0
   9   148.2  146.0  143.9  142.3  141.0  140.1  140.0
  10   148.2  146.0  143.9  142.3  141.0  140.1  140.0
  11   148.2  145.9  143.9  142.3  141.0  140.1  140.0
  12   146.8  145.5  143.8  142.2  141.0  140.1  140.0
  13   146.5  145.3  143.7  142.3  141.0  140.1  140.0
  14   146.5  145.4  143.8  142.4  141.1  140.2  140.0
  15   146.9  145.7  144.2  142.7  141.4  140.3  140.0
  16   147.6  146.4  144.9  143.4  141.9  140.6  140.0
  17   148.5  147.3  145.8  144.2  142.7  141.1  140.0
1
  VOLUMETRIC BUDGET FOR ENTIRE MODEL AT END OF TIME STEP    1, STRESS PERIOD   1
  ------------------------------------------------------------------------------

     CUMULATIVE VOLUMES      L**3       RATES FOR THIS TIME STEP      L**3/T
     ------------------                 ------------------------

           IN:                                      IN:
           ---                                      ---
             STORAGE =           0.0000               STORAGE =           0.0000
       CONSTANT HEAD =      166882.4688         CONSTANT HEAD =      166882.4688
                  ET =           0.0000                    ET =           0.0000
            RECHARGE =     1739999.8750              RECHARGE =     1739999.8750
     SPECIFIED FLOWS =           0.0000       SPECIFIED FLOWS =           0.0000
       LAKE  SEEPAGE =       24955.4336         LAKE  SEEPAGE =       24955.4336

            TOTAL IN =     1931837.7500              TOTAL IN =     1931837.7500

          OUT:                                     OUT:
          ----                                     ----
             STORAGE =           0.0000               STORAGE =           0.0000
       CONSTANT HEAD =        9490.6240         CONSTANT HEAD =        9490.6240
                  ET =     1905453.7500                    ET =     1905453.7500
            RECHARGE =           0.0000              RECHARGE =           0.0000
     SPECIFIED FLOWS =           0.0000       SPECIFIED FLOWS =           0.0000
       LAKE  SEEPAGE =       16886.5527         LAKE  SEEPAGE =       16886.5527

           TOTAL OUT =     1931830.8750             TOTAL OUT =     1931830.8750

            IN - OUT =           6.8750              IN - OUT =           6.8750

 PERCENT DISCREPANCY =           0.00     PERCENT DISCREPANCY =           0.00






         TIME SUMMARY AT END OF TIME STEP    1 IN STRESS PERIOD    1
                    SECONDS     MINUTES      HOURS       DAYS        YEARS
                    -----------------------------------------------------------
   TIME STEP LENGTH  86400.      1440.0      24.000     1.00000     2.73785E-03
 STRESS PERIOD TIME  86400.      1440.0      24.000     1.00000     2.73785E-03
         TOTAL TIME  86400.      1440.0      24.000     1.00000     2.73785E-03
1

 Run end date and time (yyyy/mm/dd hh:mm:ss): 2013/07/31 13:33:54
 Elapsed run time:  0.171 Seconds

