                                  MODFLOW-2005     
      U.S. GEOLOGICAL SURVEY MODULAR FINITE-DIFFERENCE GROUND-WATER FLOW MODEL
                            VERSION 1.11.00 8/8/2013

 LIST FILE: str.lst
                         UNIT    7

 OPENING str.ba6
 FILE TYPE:BAS6   UNIT    8   STATUS:OLD    
 FORMAT:FORMATTED              ACCESS:SEQUENTIAL          

 OPENING str.sip
 FILE TYPE:SIP   UNIT   13   STATUS:OLD    
 FORMAT:FORMATTED              ACCESS:SEQUENTIAL          

 OPENING str.oc
 FILE TYPE:OC   UNIT   14   STATUS:OLD    
 FORMAT:FORMATTED              ACCESS:SEQUENTIAL          

 OPENING str.str
 FILE TYPE:STR   UNIT   15   STATUS:OLD    
 FORMAT:FORMATTED              ACCESS:SEQUENTIAL          

 OPENING str.bc6
 FILE TYPE:BCF6   UNIT    9   STATUS:OLD    
 FORMAT:FORMATTED              ACCESS:SEQUENTIAL          

 OPENING str.dis
 FILE TYPE:DIS   UNIT   10   STATUS:OLD    
 FORMAT:FORMATTED              ACCESS:SEQUENTIAL          

 BAS -- BASIC PACKAGE, VERSION 7, 5/2/2005 INPUT READ FROM UNIT    8
 
 MODFLOW was compiled using mixed precision
 Precision of REAL variables:           6
 Precision of DOUBLE PRECISION variables:          15

 DISCRETIZATION INPUT DATA READ FROM UNIT   10
    1 LAYERS         6 ROWS         6 COLUMNS
    1 STRESS PERIOD(S) IN SIMULATION
 MODEL TIME UNIT IS SECONDS
 MODEL LENGTH UNIT IS UNDEFINED
  Confining bed flag for each layer:
   0

                     DELR =  1000.000    

                     DELC =  1000.000    

 TOP ELEVATION OF LAYER 1 =   600.000    

   MODEL LAYER BOTTOM EL. =   0.00000     FOR LAYER   1


 STRESS PERIOD     LENGTH       TIME STEPS     MULTIPLIER FOR DELT    SS FLAG
 ----------------------------------------------------------------------------
        1         1296000.          3                    1.500         SS

 STEADY-STATE SIMULATION



 
 #EXAMPLE SIMULATION OF STREAM ROUTING PACKAGE -- STEADY STATE OCTOBER 21, 1987  
 #-- STREAM STAGE IS CALCULATED                                                  

           BOUNDARY ARRAY =              1 FOR LAYER   1

 AQUIFER HEAD WILL BE SET TO   999.00     AT ALL NO-FLOW NODES (IBOUND=0).



                       INITIAL HEAD FOR LAYER   1
 READING ON UNIT    8 WITH FORMAT: (10F13.0)           

            1           2           3           4           5           6
 ........................................................................
   1    480.0       480.0       480.0       480.0       480.0       480.0    
   2    480.0       480.0       480.0       480.0       480.0       480.0    
   3    480.0       480.0       480.0       480.0       480.0       480.0    
   4    480.0       480.0       480.0       480.0       480.0       480.0    
   5    480.0       480.0       480.0       480.0       480.0       480.0    
   6    480.0       480.0       480.0       480.0       480.0       480.0    

 OUTPUT CONTROL IS SPECIFIED EVERY TIME STEP
 HEAD PRINT FORMAT CODE IS   5    DRAWDOWN PRINT FORMAT CODE IS   5
 HEADS WILL BE SAVED ON UNIT    0    DRAWDOWNS WILL BE SAVED ON UNIT    0

 BCF -- BLOCK-CENTERED FLOW PACKAGE, VERSION 7, 5/2/2005
         INPUT READ FROM UNIT  9
 STEADY-STATE SIMULATION
 HEAD AT CELLS THAT CONVERT TO DRY=  0.10000E+31
 WETTING CAPABILITY IS NOT ACTIVE
      LAYER  LAYER-TYPE CODE     INTERBLOCK T
      --------------------------------------------
         1            0          0 -- HARMONIC    

 COLUMN TO ROW ANISOTROPY =  1.000000    

     TRANSMIS. ALONG ROWS =  8.000000E-02 FOR LAYER   1

 STR -- STREAM PACKAGE, VERSION 7, 5/2/2005 INPUT READ FROM UNIT   15
 No named parameters
 MAXIMUM OF     23 ACTIVE STREAM NODES AT ONE TIME
 NUMBER OF STREAM SEGMENTS IS      7
 NUMBER OF STREAM TRIBUTARIES IS      3
 DIVERSIONS FROM STREAMS HAVE BEEN SPECIFIED
 STREAM STAGES WILL BE CALCULATED USING A CONSTANT OF     1.4860


     0 Stream parameters

 SIP -- STRONGLY-IMPLICIT PROCEDURE SOLUTION PACKAGE
                    VERSION 7, 5/2/2005 INPUT READ FROM UNIT   13
 MAXIMUM OF 150 ITERATIONS ALLOWED FOR CLOSURE
  5 ITERATION PARAMETERS

          SOLUTION BY THE STRONGLY IMPLICIT PROCEDURE
          -------------------------------------------
 MAXIMUM ITERATIONS ALLOWED FOR CLOSURE =      150
                 ACCELERATION PARAMETER =    1.00000    
      HEAD CHANGE CRITERION FOR CLOSURE =    0.10000E-03
      SIP HEAD CHANGE PRINTOUT INTERVAL =      999

     CALCULATE ITERATION PARAMETERS FROM MODEL CALCULATED WSEED
1
                            STRESS PERIOD NO.    1, LENGTH =   1296000.    
                            -----------------------------------------------

                              NUMBER OF TIME STEPS =     3

                               MULTIPLIER FOR DELT =     1.500

                            INITIAL TIME STEP SIZE =   272842.1    

    LAYER   ROW    COL    SEGMENT   REACH   STREAMFLOW      STREAM    STREAMBED     STREAMBED BOT  STREAMBED TOP
                           NUMBER   NUMBER                   STAGE   CONDUCTANCE      ELEVATION      ELEVATION         
 ----------------------------------------------------------------------------------------------------------------------
       1      1      3        1        1         4.500       495.0      1.200            490.0        492.0    
       1      2      3        1        2         0.000       490.0     0.6000            485.0        487.0    
       1      2      3        2        1         1.500       487.0     0.2000            483.0        485.0    
       1      3      3        2        2         0.000       486.0     0.4000            482.0        484.0    
       1      4      3        2        3         0.000       484.0     0.4000            480.0        482.0    
       1      5      3        2        4         0.000       480.0     0.2000            476.0        478.0    
       1      2      3        3        1       -1.0000       486.0     0.4000            481.0        483.0    
       1      3      4        3        2         0.000       482.0      1.200            477.0        479.0    
       1      4      4        3        3         0.000       478.0      1.200            473.0        475.0    
       1      5      4        3        4         0.000       475.0     0.6000            470.0        472.0    
       1      4      1        4        1        0.8000       492.0     0.4000            489.0        490.0    
       1      4      2        4        2         0.000       488.0     0.3200            485.0        486.0    
       1      5      2        4        3         0.000       483.0     0.3200            480.0        481.0    
       1      5      3        4        4         0.000       480.0     0.2000            477.0        478.0    
       1      5      3        5        1       -1.0000       478.0     0.2000            475.0        476.0    
       1      5      4        5        2         0.000       474.0     0.2000            471.0        472.0    
       1      2      6        6        1         1.200       495.0     0.8000            491.0        493.0    
       1      3      6        6        2         0.000       490.0     0.8000            486.0        488.0    
       1      4      5        6        3         0.000       480.0     0.8000            476.0        478.0    
       1      5      5        6        4         0.000       477.0     0.6000            473.0        475.0    
       1      5      4        6        5         0.000       474.0     0.2000            470.0        472.0    
       1      5      4        7        1       -1.0000       472.0     0.6000            467.0        469.0    
       1      6      4        7        2         0.000       469.0      1.200            464.0        466.0    

     23 STREAM REACHES

    LAYER   ROW    COL    SEGMENT   REACH        STREAM             STREAM          ROUGH
                           NUMBER   NUMBER        WIDTH              SLOPE          COEF.
   --------------------------------------------------------------------------------------------------------------
       1      1      3        1        1         10.000           0.7000E-02      0.3000E-01
       1      2      3        1        2         10.000           0.7000E-02      0.3000E-01
       1      2      3        2        1          5.000           0.2000E-02      0.2200E-01
       1      3      3        2        2          5.000           0.2000E-02      0.2200E-01
       1      4      3        2        3          5.000           0.2000E-02      0.2200E-01
       1      5      3        2        4          5.000           0.4000E-02      0.2200E-01
       1      2      3        3        1         10.000           0.5000E-02      0.3000E-01
       1      3      4        3        2         10.000           0.5000E-02      0.3000E-01
       1      4      4        3        3         10.000           0.5000E-02      0.3000E-01
       1      5      4        3        4         10.000           0.5000E-02      0.3000E-01
       1      4      1        4        1          5.000           0.4000E-02      0.2200E-01
       1      4      2        4        2          5.000           0.4000E-02      0.2200E-01
       1      5      2        4        3          5.000           0.4000E-02      0.2200E-01
       1      5      3        4        4          5.000           0.4000E-02      0.2200E-01
       1      5      3        5        1          5.000           0.5000E-02      0.2200E-01
       1      5      4        5        2          5.000           0.5000E-02      0.2200E-01
       1      2      6        6        1          5.000           0.5000E-02      0.2200E-01
       1      3      6        6        2          5.000           0.8000E-02      0.2200E-01
       1      4      5        6        3          5.000           0.7000E-02      0.2200E-01
       1      5      5        6        4          5.000           0.4000E-02      0.2200E-01
       1      5      4        6        5          5.000           0.3000E-02      0.2200E-01
       1      5      4        7        1         10.000           0.4000E-02      0.3000E-01
       1      6      4        7        2         10.000           0.4000E-02      0.3000E-01

                              MAXIMUM NUMBER OF TRIBUTARY STREAMS IS      3

                     STREAM SEGMENT               TRIBUTARY STREAM SEGMENT NUMBERS
                        1                        0    0    0
                        2                        0    0    0
                        3                        1    0    0
                        4                        0    0    0
                        5                        2    4    0
                        6                        0    0    0
                        7                        3    5    6

          DIVERSION SEGMENT NUMBER          UPSTREAM SEGMENT NUMBER
                        1                                0
                        2                                1
                        3                                0
                        4                                0
                        5                                0
                        6                                0
                        7                                0
 
 SOLVING FOR HEAD 

 AVERAGE SEED = 0.06853892
 MINIMUM SEED = 0.06853892

     5 ITERATION PARAMETERS CALCULATED FROM AVERAGE SEED:

  0.000000E+00 0.488337E+00 0.738201E+00 0.866047E+00 0.931461E+00

    21 ITERATIONS FOR TIME STEP   1 IN STRESS PERIOD    1

 HEAD/DRAWDOWN PRINTOUT FLAG = 0     TOTAL BUDGET PRINTOUT FLAG = 0
 CELL-BY-CELL FLOW TERM FLAG = 0

 OUTPUT FLAGS FOR ALL LAYERS ARE THE SAME:
   HEAD    DRAWDOWN  HEAD  DRAWDOWN
 PRINTOUT  PRINTOUT  SAVE    SAVE
 ----------------------------------
     0         0       0       0
 
 SOLVING FOR HEAD 
     1 ITERATIONS FOR TIME STEP   2 IN STRESS PERIOD    1

 HEAD/DRAWDOWN PRINTOUT FLAG = 0     TOTAL BUDGET PRINTOUT FLAG = 0
 CELL-BY-CELL FLOW TERM FLAG = 0

 OUTPUT FLAGS FOR ALL LAYERS ARE THE SAME:
   HEAD    DRAWDOWN  HEAD  DRAWDOWN
 PRINTOUT  PRINTOUT  SAVE    SAVE
 ----------------------------------
     0         0       0       0
 
 SOLVING FOR HEAD 
     1 ITERATIONS FOR TIME STEP   3 IN STRESS PERIOD    1

 MAXIMUM HEAD CHANGE FOR EACH ITERATION:

    HEAD CHANGE   HEAD CHANGE   HEAD CHANGE   HEAD CHANGE   HEAD CHANGE
  LAYER,ROW,COL LAYER,ROW,COL LAYER,ROW,COL LAYER,ROW,COL LAYER,ROW,COL
 ----------------------------------------------------------------------
    -0.5869E-06
  (  1,  2,  5)


 HEAD/DRAWDOWN PRINTOUT FLAG = 1     TOTAL BUDGET PRINTOUT FLAG = 1
 CELL-BY-CELL FLOW TERM FLAG = 1

 OUTPUT FLAGS FOR ALL LAYERS ARE THE SAME:
   HEAD    DRAWDOWN  HEAD  DRAWDOWN
 PRINTOUT  PRINTOUT  SAVE    SAVE
 ----------------------------------
     1         0       0       0

            LAYER      ROW     COLUMN     STREAM    REACH      FLOW INTO     FLOW INTO     FLOW OUT OF     HEAD IN
                                          NUMBER    NUMBER    STREAM REACH    AQUIFER      STREAM REACH     STREAM


               1         1         3         1         1      4.500000      0.9313477       3.568652         492.25
               1         2         3         1         2      3.568652      0.8409668       1.227685         487.18
               1         2         3         2         1      1.500000     -0.1047852       1.604785         485.26
               1         3         3         2         2      1.604785      0.2215942       1.383191         484.25
               1         4         3         2         3      1.383191      0.3573120       1.025879         482.22
               1         5         3         2         4      1.025879      0.2207947      0.8050842         478.15
               1         2         3         3         1      1.227685      -1.045447       2.273132         483.17
               1         3         4         3         2      2.273132     -0.6631348       2.936267         479.21
               1         4         4         3         3      2.936267     -0.6118286       3.548096         475.24
               1         5         4         3         4      3.548096      0.4552185       3.092877         472.24
               1         4         1         4         1     0.8000000      0.4458252      0.3541748         490.11
               1         4         2         4         2     0.3541748      0.3385156      0.1565921E-01     486.06
               1         5         2         4         3     0.1565921E-01  0.1565921E-01   0.000000         481.01
               1         5         3         4         4      0.000000       0.000000       0.000000         478.00
               1         5         3         5         1     0.8050842     -0.1815308      0.9866150         476.14
               1         5         4         5         2     0.9866150      0.1314453      0.8551697         472.14
               1         2         6         6         1      1.200000       1.012817      0.1871827         493.12
               1         3         6         6         2     0.1871827      0.1871827       0.000000         488.03
               1         4         5         6         3      0.000000     -0.5859375E-01  0.5859375E-01     478.02
               1         5         5         6         4     0.5859375E-01  0.5859375E-01   0.000000         475.02
               1         5         4         6         5      0.000000       0.000000       0.000000         472.00
               1         5         4         7         1      3.948047      -1.301001       5.249048         469.32
               1         6         4         7         2      5.249048      -1.250867       6.499915         466.37
1
              HEAD IN LAYER   1 AT END OF TIME STEP   3 IN STRESS PERIOD    1
  ---------------------------------------------------------------------------

           1       2       3       4       5       6
 ...................................................
   1  487.639 488.554 491.471 488.439 488.579 490.216
   2  486.725 486.551 485.779 485.266 487.082 491.854
   3  485.985 485.144 483.696 479.763 482.630 485.602
   4  486.087 484.345 481.326 475.750 478.073 479.983
   5  482.357 480.593 477.047 471.485 474.662 476.275
   6  480.392 478.426 474.294 467.409 472.083 474.179
1
  VOLUMETRIC BUDGET FOR ENTIRE MODEL AT END OF TIME STEP    3, STRESS PERIOD   1
  ------------------------------------------------------------------------------

     CUMULATIVE VOLUMES      L**3       RATES FOR THIS TIME STEP      L**3/T
     ------------------                 ------------------------

           IN:                                      IN:
           ---                                      ---
             STORAGE =           0.0000               STORAGE =           0.0000
       CONSTANT HEAD =           0.0000         CONSTANT HEAD =           0.0000
      STREAM LEAKAGE =     6761585.0000        STREAM LEAKAGE =           5.2173

            TOTAL IN =     6761585.0000              TOTAL IN =           5.2173

          OUT:                                     OUT:
          ----                                     ----
             STORAGE =           0.0000               STORAGE =           0.0000
       CONSTANT HEAD =           0.0000         CONSTANT HEAD =           0.0000
      STREAM LEAKAGE =     6761475.0000        STREAM LEAKAGE =           5.2172

           TOTAL OUT =     6761475.0000             TOTAL OUT =           5.2172

            IN - OUT =         110.0000              IN - OUT =       8.4877E-05

 PERCENT DISCREPANCY =           0.00     PERCENT DISCREPANCY =           0.00






         TIME SUMMARY AT END OF TIME STEP    3 IN STRESS PERIOD    1
                    SECONDS     MINUTES      HOURS       DAYS        YEARS
                    -----------------------------------------------------------
   TIME STEP LENGTH 6.13895E+05  10232.      170.53      7.1053     1.94531E-02
 STRESS PERIOD TIME 1.29600E+06  21600.      360.00      15.000     4.10678E-02
         TOTAL TIME 1.29600E+06  21600.      360.00      15.000     4.10678E-02
1

 Run end date and time (yyyy/mm/dd hh:mm:ss): 2013/07/31 13:33:56
 Elapsed run time:  0.019 Seconds

