                                  MODFLOW-2005     
      U.S. GEOLOGICAL SURVEY MODULAR FINITE-DIFFERENCE GROUND-WATER FLOW MODEL
                            VERSION 1.11.00 8/8/2013

 LIST FILE: swi2ex4sww.list
                         UNIT    2

 OPENING swi2ex4sww.dis
 FILE TYPE:DIS   UNIT   11   STATUS:OLD    
 FORMAT:FORMATTED              ACCESS:SEQUENTIAL          

 OPENING swi2ex4sww.bas
 FILE TYPE:BAS6   UNIT   13   STATUS:OLD    
 FORMAT:FORMATTED              ACCESS:SEQUENTIAL          

 OPENING swi2ex4sww.ghb
 FILE TYPE:GHB   UNIT   23   STATUS:OLD    
 FORMAT:FORMATTED              ACCESS:SEQUENTIAL          

 OPENING swi2ex4sww.wel
 FILE TYPE:WEL   UNIT   20   STATUS:OLD    
 FORMAT:FORMATTED              ACCESS:SEQUENTIAL          

 OPENING swi2ex4sww.bcf
 FILE TYPE:BCF6   UNIT   15   STATUS:OLD    
 FORMAT:FORMATTED              ACCESS:SEQUENTIAL          

 OPENING swi2ex4sww.swi
 FILE TYPE:SWI2   UNIT   29   STATUS:OLD    
 FORMAT:FORMATTED              ACCESS:SEQUENTIAL          

 OPENING swi2ex4sww.zta
 FILE TYPE:DATA(BINARY)   UNIT   55   STATUS:REPLACE
 FORMAT:BINARY                 ACCESS:SEQUENTIAL          

 OPENING swi2ex4sww.oc
 FILE TYPE:OC   UNIT   14   STATUS:OLD    
 FORMAT:FORMATTED              ACCESS:SEQUENTIAL          

 OPENING swi2ex4sww.hds
 FILE TYPE:DATA(BINARY)   UNIT   51   STATUS:REPLACE
 FORMAT:BINARY                 ACCESS:SEQUENTIAL          

 OPENING swi2ex4sww.pcg
 FILE TYPE:PCG   UNIT   27   STATUS:OLD    
 FORMAT:FORMATTED              ACCESS:SEQUENTIAL          

 BAS -- BASIC PACKAGE, VERSION 7, 5/2/2005 INPUT READ FROM UNIT   13
 
 MODFLOW was compiled using mixed precision
 Precision of REAL variables:           6
 Precision of DOUBLE PRECISION variables:          15

 DISCRETIZATION INPUT DATA READ FROM UNIT   11
 # Discretization file for MODFLOW, generated by Flopy.
    2 LAYERS        61 ROWS        61 COLUMNS
    3 STRESS PERIOD(S) IN SIMULATION
 MODEL TIME UNIT IS DAYS
 MODEL LENGTH UNIT IS METERS
  Confining bed flag for each layer:
   0   0

                     DELR =   50.0000    

                     DELC =   50.0000    



           TOP ELEVATION OF LAYER 1
 READING ON UNIT   11 WITH FORMAT:            (5G13.0) 



             MODEL LAYER BOTTOM EL. FOR LAYER   1
 READING ON UNIT   11 WITH FORMAT:            (5G13.0) 



             MODEL LAYER BOTTOM EL. FOR LAYER   2
 READING ON UNIT   11 WITH FORMAT:            (5G13.0) 


 STRESS PERIOD     LENGTH       TIME STEPS     MULTIPLIER FOR DELT    SS FLAG
 ----------------------------------------------------------------------------
        1         73000.00       1000                    1.000         SS
        2         4380.000        120                    1.000         SS
        3         6570.000        180                    1.000         SS

 STEADY-STATE SIMULATION



 
 # Basic package file for MODFLOW, generated by Flopy.                           
 THE FREE FORMAT OPTION HAS BEEN SELECTED



                     BOUNDARY ARRAY FOR LAYER   1
 READING ON UNIT   13 WITH FORMAT:               (5I4) 



                     BOUNDARY ARRAY FOR LAYER   2
 READING ON UNIT   13 WITH FORMAT:               (5I4) 

 AQUIFER HEAD WILL BE SET TO  -999.99     AT ALL NO-FLOW NODES (IBOUND=0).



                       INITIAL HEAD FOR LAYER   1
 READING ON UNIT   13 WITH FORMAT:            (5G13.0) 



                       INITIAL HEAD FOR LAYER   2
 READING ON UNIT   13 WITH FORMAT:            (5G13.0) 
 # Output control package file for MODFLOW, generated by Flopy. Output control by words option

 OUTPUT CONTROL IS SPECIFIED ONLY AT TIME STEPS FOR WHICH OUTPUT IS DESIRED
 HEAD PRINT FORMAT CODE IS   0    DRAWDOWN PRINT FORMAT CODE IS   0
 HEADS WILL BE SAVED ON UNIT   51    DRAWDOWNS WILL BE SAVED ON UNIT    0

 BCF -- BLOCK-CENTERED FLOW PACKAGE, VERSION 7, 5/2/2005
         INPUT READ FROM UNIT 15
 STEADY-STATE SIMULATION
 HEAD AT CELLS THAT CONVERT TO DRY= -0.10000E+31
 WETTING CAPABILITY IS NOT ACTIVE
      LAYER  LAYER-TYPE CODE     INTERBLOCK T
      --------------------------------------------
         1            0          0 -- HARMONIC    
         2            0          0 -- HARMONIC    



           COLUMN TO ROW ANISOTROPY
 READING ON UNIT   15 WITH FORMAT:            (5G13.0) 



               TRANSMIS. ALONG ROWS FOR LAYER   1
 READING ON UNIT   15 WITH FORMAT:           (61G13.0) 



           VERT HYD COND /THICKNESS FOR LAYER   1
 READING ON UNIT   15 WITH FORMAT:           (61G13.0) 



               TRANSMIS. ALONG ROWS FOR LAYER   2
 READING ON UNIT   15 WITH FORMAT:           (61G13.0) 

 WEL -- WELL PACKAGE, VERSION 7, 5/2/2005 INPUT READ FROM UNIT   20
 # Well file for MODFLOW, generated by Flopy.
 No named parameters
 MAXIMUM OF   1683 ACTIVE WELLS AT ONE TIME


     0 Well parameters

 GHB -- GENERAL-HEAD BOUNDARY PACKAGE, VERSION 7, 5/2/2005
         INPUT READ FROM UNIT   23
 # GHB for MODFLOW, generated by Flopy.
 No named parameters
 MAXIMUM OF   2040 ACTIVE GHB CELLS AT ONE TIME


     0 GHB parameters

 PCG -- CONJUGATE-GRADIENT SOLUTION PACKAGE, VERSION 7, 5/2/2005
 # PCG for MODFLOW, generated by Flopy.
 MAXIMUM OF     50 CALLS OF SOLUTION ROUTINE
 MAXIMUM OF     30 INTERNAL ITERATIONS PER CALL TO SOLUTION ROUTINE
 MATRIX PRECONDITIONING TYPE :    1



                                    SOLUTION BY THE CONJUGATE-GRADIENT METHOD
                                   -------------------------------------------
                    MAXIMUM NUMBER OF CALLS TO PCG ROUTINE =       50
                        MAXIMUM ITERATIONS PER CALL TO PCG =       30
                               MATRIX PRECONDITIONING TYPE =        1
        RELAXATION FACTOR (ONLY USED WITH PRECOND. TYPE 1) =    0.10000E+01
 PARAMETER OF POLYNOMIAL PRECOND. = 2 (2) OR IS CALCULATED :        0
                         HEAD CHANGE CRITERION FOR CLOSURE =    0.10000E-04
                     RESIDUAL CHANGE CRITERION FOR CLOSURE =    0.10000E-04
            PCG HEAD AND RESIDUAL CHANGE PRINTOUT INTERVAL =      999
     PRINTING FROM SOLVER IS LIMITED(1) OR SUPPRESSED (>1) =        3
                            STEADY-STATE DAMPING PARAMETER =    0.10000E+01
                               TRANSIENT DAMPING PARAMETER =    0.10000E+01


 SWI2 -- SWI PACKAGE, VERSION 2.0.0, 07/22/2013
 --------------------------------------------------
 SWI2 INPUT READ FROM UNIT 29


 # Salt Water Intrusion package file for MODFLOW-2005, generated by Flopy.
 #--Dataset 1


 SWI2 DATASET 1
 ----------------------------------------------------
 NUMBER OF SURFACES (NSRF):                         1
 TOTAL NUMBER OF ZONES:                             2
 DENSITY DISTRIBUTION OPTION (ISTRAT):              1
   VARIABLE DENSITY FLOW -- ISTRAT = 0
   STRATIFIED FLOW       -- ISTRAT = 1
 NUMBER OF SWI OBSERVATIONS (NOBS):                 0
 ZETA OUTPUT FILE UNIT NUMBER (ISWIZT):            55
 BUDGET OUTPUT FILE UNIT NUMBER (ISWICB):           0
 OBSERVATION OUTPUT FILE UNIT NUMBER (ISWIOBS):     0
 ----------------------------------------------------
 #--Dataset 2a


 SWI2 DATASET 2A
 ----------------------------------------------------
 SOLVER (NSOLVER):                                  1
   SOLVER =                      DIRECT SOLVER (DE4)
 SOLVER PRINTOUT INTERVAL (IPRSOL):               999
 SOLVER OUTPUT FLAG (MUTSOL):                       3
   0 = PRINTING EVERY ITERATION
   1 = LIMITED (TOTAL NUMBER OF ITERATIONS)
   2 = NO PRINTING
   3 = ONLY IF CONVERGENCE FAILS
 ----------------------------------------------------
 #--Dataset 3a


 SWI2 DATASET 3A
 ----------------------------------------------------
 MAXIMUM TOE SURFACE SLOPE (TOESLOPE):      0.500E-02
 MAXIMUM TIP SURFACE SLOPE (TIPSLOPE):      0.500E-02
 EXCESS SURFACE SLOPE FRACTION (ALPHA):     0.100E+00
 MINIMUM ZONE THICKNESS FRACTION (BETA):    0.100E+00
 ----------------------------------------------------



                             NUZONE
 READING ON UNIT   29 WITH FORMAT:           (20G13.0) 



                   ZETA SURFACE  1  FOR LAYER   1
 READING ON UNIT   29 WITH FORMAT:           (61G13.0) 



                   ZETA SURFACE  1  FOR LAYER   2
 READING ON UNIT   29 WITH FORMAT:           (61G13.0) 

                      SSZ =  0.200000     FOR LAYER   1

                      SSZ =  0.200000     FOR LAYER   2



                            IZONENR FOR LAYER   1
 READING ON UNIT   29 WITH FORMAT:             (61I13) 



                            IZONENR FOR LAYER   2
 READING ON UNIT   29 WITH FORMAT:             (61I13) 
1
                            STRESS PERIOD NO.    1, LENGTH =   73000.00    
                            -----------------------------------------------

                              NUMBER OF TIME STEPS =  1000

                               MULTIPLIER FOR DELT =     1.000

                            INITIAL TIME STEP SIZE =   73.00000    

 WELL NO.  LAYER   ROW   COL   STRESS RATE         
 --------------------------------------------------
      1      1     11     11      1.0000    
      2      1     11     12      1.0000    
      3      1     11     13      1.0000    
      4      1     11     14      1.0000    
      5      1     11     15      1.0000    
      6      1     11     16      1.0000    
      7      1     11     17      1.0000    
      8      1     11     18      1.0000    
      9      1     11     19      1.0000    
     10      1     11     20      1.0000    
     11      1     11     21      1.0000    
     12      1     11     22      1.0000    
     13      1     11     23      1.0000    
     14      1     11     24      1.0000    
     15      1     11     25      1.0000    
     16      1     11     26      1.0000    
     17      1     11     27      1.0000    
     18      1     11     28      1.0000    
     19      1     11     29      1.0000    
     20      1     11     30      1.0000    
     21      1     11     31      1.0000    
     22      1     11     32      1.0000    
     23      1     11     33      1.0000    
     24      1     11     34      1.0000    
     25      1     11     35      1.0000    
     26      1     11     36      1.0000    
     27      1     11     37      1.0000    
     28      1     11     38      1.0000    
     29      1     11     39      1.0000    
     30      1     11     40      1.0000    
     31      1     11     41      1.0000    
     32      1     11     42      1.0000    
     33      1     11     43      1.0000    
     34      1     11     44      1.0000    
     35      1     11     45      1.0000    
     36      1     11     46      1.0000    
     37      1     11     47      1.0000    
     38      1     11     48      1.0000    
     39      1     11     49      1.0000    
     40      1     11     50      1.0000    
     41      1     11     51      1.0000    
     42      1     12     11      1.0000    
     43      1     12     12      1.0000    
     44      1     12     13      1.0000    
     45      1     12     14      1.0000    
     46      1     12     15      1.0000    
     47      1     12     16      1.0000    
     48      1     12     17      1.0000    
     49      1     12     18      1.0000    
     50      1     12     19      1.0000    
     51      1     12     20      1.0000    
     52      1     12     21      1.0000    
     53      1     12     22      1.0000    
     54      1     12     23      1.0000    
     55      1     12     24      1.0000    
     56      1     12     25      1.0000    
     57      1     12     26      1.0000    
     58      1     12     27      1.0000    
     59      1     12     28      1.0000    
     60      1     12     29      1.0000    
     61      1     12     30      1.0000    
     62      1     12     31      1.0000    
     63      1     12     32      1.0000    
     64      1     12     33      1.0000    
     65      1     12     34      1.0000    
     66      1     12     35      1.0000    
     67      1     12     36      1.0000    
     68      1     12     37      1.0000    
     69      1     12     38      1.0000    
     70      1     12     39      1.0000    
     71      1     12     40      1.0000    
     72      1     12     41      1.0000    
     73      1     12     42      1.0000    
     74      1     12     43      1.0000    
     75      1     12     44      1.0000    
     76      1     12     45      1.0000    
     77      1     12     46      1.0000    
     78      1     12     47      1.0000    
     79      1     12     48      1.0000    
     80      1     12     49      1.0000    
     81      1     12     50      1.0000    
     82      1     12     51      1.0000    
     83      1     13     11      1.0000    
     84      1     13     12      1.0000    
     85      1     13     13      1.0000    
     86      1     13     14      1.0000    
     87      1     13     15      1.0000    
     88      1     13     16      1.0000    
     89      1     13     17      1.0000    
     90      1     13     18      1.0000    
     91      1     13     19      1.0000    
     92      1     13     20      1.0000    
     93      1     13     21      1.0000    
     94      1     13     22      1.0000    
     95      1     13     23      1.0000    
     96      1     13     24      1.0000    
     97      1     13     25      1.0000    
     98      1     13     26      1.0000    
     99      1     13     27      1.0000    
    100      1     13     28      1.0000    
    101      1     13     29      1.0000    
    102      1     13     30      1.0000    
    103      1     13     31      1.0000    
    104      1     13     32      1.0000    
    105      1     13     33      1.0000    
    106      1     13     34      1.0000    
    107      1     13     35      1.0000    
    108      1     13     36      1.0000    
    109      1     13     37      1.0000    
    110      1     13     38      1.0000    
    111      1     13     39      1.0000    
    112      1     13     40      1.0000    
    113      1     13     41      1.0000    
    114      1     13     42      1.0000    
    115      1     13     43      1.0000    
    116      1     13     44      1.0000    
    117      1     13     45      1.0000    
    118      1     13     46      1.0000    
    119      1     13     47      1.0000    
    120      1     13     48      1.0000    
    121      1     13     49      1.0000    
    122      1     13     50      1.0000    
    123      1     13     51      1.0000    
    124      1     14     11      1.0000    
    125      1     14     12      1.0000    
    126      1     14     13      1.0000    
    127      1     14     14      1.0000    
    128      1     14     15      1.0000    
    129      1     14     16      1.0000    
    130      1     14     17      1.0000    
    131      1     14     18      1.0000    
    132      1     14     19      1.0000    
    133      1     14     20      1.0000    
    134      1     14     21      1.0000    
    135      1     14     22      1.0000    
    136      1     14     23      1.0000    
    137      1     14     24      1.0000    
    138      1     14     25      1.0000    
    139      1     14     26      1.0000    
    140      1     14     27      1.0000    
    141      1     14     28      1.0000    
    142      1     14     29      1.0000    
    143      1     14     30      1.0000    
    144      1     14     31      1.0000    
    145      1     14     32      1.0000    
    146      1     14     33      1.0000    
    147      1     14     34      1.0000    
    148      1     14     35      1.0000    
    149      1     14     36      1.0000    
    150      1     14     37      1.0000    
    151      1     14     38      1.0000    
    152      1     14     39      1.0000    
    153      1     14     40      1.0000    
    154      1     14     41      1.0000    
    155      1     14     42      1.0000    
    156      1     14     43      1.0000    
    157      1     14     44      1.0000    
    158      1     14     45      1.0000    
    159      1     14     46      1.0000    
    160      1     14     47      1.0000    
    161      1     14     48      1.0000    
    162      1     14     49      1.0000    
    163      1     14     50      1.0000    
    164      1     14     51      1.0000    
    165      1     15     11      1.0000    
    166      1     15     12      1.0000    
    167      1     15     13      1.0000    
    168      1     15     14      1.0000    
    169      1     15     15      1.0000    
    170      1     15     16      1.0000    
    171      1     15     17      1.0000    
    172      1     15     18      1.0000    
    173      1     15     19      1.0000    
    174      1     15     20      1.0000    
    175      1     15     21      1.0000    
    176      1     15     22      1.0000    
    177      1     15     23      1.0000    
    178      1     15     24      1.0000    
    179      1     15     25      1.0000    
    180      1     15     26      1.0000    
    181      1     15     27      1.0000    
    182      1     15     28      1.0000    
    183      1     15     29      1.0000    
    184      1     15     30      1.0000    
    185      1     15     31      1.0000    
    186      1     15     32      1.0000    
    187      1     15     33      1.0000    
    188      1     15     34      1.0000    
    189      1     15     35      1.0000    
    190      1     15     36      1.0000    
    191      1     15     37      1.0000    
    192      1     15     38      1.0000    
    193      1     15     39      1.0000    
    194      1     15     40      1.0000    
    195      1     15     41      1.0000    
    196      1     15     42      1.0000    
    197      1     15     43      1.0000    
    198      1     15     44      1.0000    
    199      1     15     45      1.0000    
    200      1     15     46      1.0000    
    201      1     15     47      1.0000    
    202      1     15     48      1.0000    
    203      1     15     49      1.0000    
    204      1     15     50      1.0000    
    205      1     15     51      1.0000    
    206      1     16     11      1.0000    
    207      1     16     12      1.0000    
    208      1     16     13      1.0000    
    209      1     16     14      1.0000    
    210      1     16     15      1.0000    
    211      1     16     16      1.0000    
    212      1     16     17      1.0000    
    213      1     16     18      1.0000    
    214      1     16     19      1.0000    
    215      1     16     20      1.0000    
    216      1     16     21      1.0000    
    217      1     16     22      1.0000    
    218      1     16     23      1.0000    
    219      1     16     24      1.0000    
    220      1     16     25      1.0000    
    221      1     16     26      1.0000    
    222      1     16     27      1.0000    
    223      1     16     28      1.0000    
    224      1     16     29      1.0000    
    225      1     16     30      1.0000    
    226      1     16     31      1.0000    
    227      1     16     32      1.0000    
    228      1     16     33      1.0000    
    229      1     16     34      1.0000    
    230      1     16     35      1.0000    
    231      1     16     36      1.0000    
    232      1     16     37      1.0000    
    233      1     16     38      1.0000    
    234      1     16     39      1.0000    
    235      1     16     40      1.0000    
    236      1     16     41      1.0000    
    237      1     16     42      1.0000    
    238      1     16     43      1.0000    
    239      1     16     44      1.0000    
    240      1     16     45      1.0000    
    241      1     16     46      1.0000    
    242      1     16     47      1.0000    
    243      1     16     48      1.0000    
    244      1     16     49      1.0000    
    245      1     16     50      1.0000    
    246      1     16     51      1.0000    
    247      1     17     11      1.0000    
    248      1     17     12      1.0000    
    249      1     17     13      1.0000    
    250      1     17     14      1.0000    
    251      1     17     15      1.0000    
    252      1     17     16      1.0000    
    253      1     17     17      1.0000    
    254      1     17     18      1.0000    
    255      1     17     19      1.0000    
    256      1     17     20      1.0000    
    257      1     17     21      1.0000    
    258      1     17     22      1.0000    
    259      1     17     23      1.0000    
    260      1     17     24      1.0000    
    261      1     17     25      1.0000    
    262      1     17     26      1.0000    
    263      1     17     27      1.0000    
    264      1     17     28      1.0000    
    265      1     17     29      1.0000    
    266      1     17     30      1.0000    
    267      1     17     31      1.0000    
    268      1     17     32      1.0000    
    269      1     17     33      1.0000    
    270      1     17     34      1.0000    
    271      1     17     35      1.0000    
    272      1     17     36      1.0000    
    273      1     17     37      1.0000    
    274      1     17     38      1.0000    
    275      1     17     39      1.0000    
    276      1     17     40      1.0000    
    277      1     17     41      1.0000    
    278      1     17     42      1.0000    
    279      1     17     43      1.0000    
    280      1     17     44      1.0000    
    281      1     17     45      1.0000    
    282      1     17     46      1.0000    
    283      1     17     47      1.0000    
    284      1     17     48      1.0000    
    285      1     17     49      1.0000    
    286      1     17     50      1.0000    
    287      1     17     51      1.0000    
    288      1     18     11      1.0000    
    289      1     18     12      1.0000    
    290      1     18     13      1.0000    
    291      1     18     14      1.0000    
    292      1     18     15      1.0000    
    293      1     18     16      1.0000    
    294      1     18     17      1.0000    
    295      1     18     18      1.0000    
    296      1     18     19      1.0000    
    297      1     18     20      1.0000    
    298      1     18     21      1.0000    
    299      1     18     22      1.0000    
    300      1     18     23      1.0000    
    301      1     18     24      1.0000    
    302      1     18     25      1.0000    
    303      1     18     26      1.0000    
    304      1     18     27      1.0000    
    305      1     18     28      1.0000    
    306      1     18     29      1.0000    
    307      1     18     30      1.0000    
    308      1     18     31      1.0000    
    309      1     18     32      1.0000    
    310      1     18     33      1.0000    
    311      1     18     34      1.0000    
    312      1     18     35      1.0000    
    313      1     18     36      1.0000    
    314      1     18     37      1.0000    
    315      1     18     38      1.0000    
    316      1     18     39      1.0000    
    317      1     18     40      1.0000    
    318      1     18     41      1.0000    
    319      1     18     42      1.0000    
    320      1     18     43      1.0000    
    321      1     18     44      1.0000    
    322      1     18     45      1.0000    
    323      1     18     46      1.0000    
    324      1     18     47      1.0000    
    325      1     18     48      1.0000    
    326      1     18     49      1.0000    
    327      1     18     50      1.0000    
    328      1     18     51      1.0000    
    329      1     19     11      1.0000    
    330      1     19     12      1.0000    
    331      1     19     13      1.0000    
    332      1     19     14      1.0000    
    333      1     19     15      1.0000    
    334      1     19     16      1.0000    
    335      1     19     17      1.0000    
    336      1     19     18      1.0000    
    337      1     19     19      1.0000    
    338      1     19     20      1.0000    
    339      1     19     21      1.0000    
    340      1     19     22      1.0000    
    341      1     19     23      1.0000    
    342      1     19     24      1.0000    
    343      1     19     25      1.0000    
    344      1     19     26      1.0000    
    345      1     19     27      1.0000    
    346      1     19     28      1.0000    
    347      1     19     29      1.0000    
    348      1     19     30      1.0000    
    349      1     19     31      1.0000    
    350      1     19     32      1.0000    
    351      1     19     33      1.0000    
    352      1     19     34      1.0000    
    353      1     19     35      1.0000    
    354      1     19     36      1.0000    
    355      1     19     37      1.0000    
    356      1     19     38      1.0000    
    357      1     19     39      1.0000    
    358      1     19     40      1.0000    
    359      1     19     41      1.0000    
    360      1     19     42      1.0000    
    361      1     19     43      1.0000    
    362      1     19     44      1.0000    
    363      1     19     45      1.0000    
    364      1     19     46      1.0000    
    365      1     19     47      1.0000    
    366      1     19     48      1.0000    
    367      1     19     49      1.0000    
    368      1     19     50      1.0000    
    369      1     19     51      1.0000    
    370      1     20     11      1.0000    
    371      1     20     12      1.0000    
    372      1     20     13      1.0000    
    373      1     20     14      1.0000    
    374      1     20     15      1.0000    
    375      1     20     16      1.0000    
    376      1     20     17      1.0000    
    377      1     20     18      1.0000    
    378      1     20     19      1.0000    
    379      1     20     20      1.0000    
    380      1     20     21      1.0000    
    381      1     20     22      1.0000    
    382      1     20     23      1.0000    
    383      1     20     24      1.0000    
    384      1     20     25      1.0000    
    385      1     20     26      1.0000    
    386      1     20     27      1.0000    
    387      1     20     28      1.0000    
    388      1     20     29      1.0000    
    389      1     20     30      1.0000    
    390      1     20     31      1.0000    
    391      1     20     32      1.0000    
    392      1     20     33      1.0000    
    393      1     20     34      1.0000    
    394      1     20     35      1.0000    
    395      1     20     36      1.0000    
    396      1     20     37      1.0000    
    397      1     20     38      1.0000    
    398      1     20     39      1.0000    
    399      1     20     40      1.0000    
    400      1     20     41      1.0000    
    401      1     20     42      1.0000    
    402      1     20     43      1.0000    
    403      1     20     44      1.0000    
    404      1     20     45      1.0000    
    405      1     20     46      1.0000    
    406      1     20     47      1.0000    
    407      1     20     48      1.0000    
    408      1     20     49      1.0000    
    409      1     20     50      1.0000    
    410      1     20     51      1.0000    
    411      1     21     11      1.0000    
    412      1     21     12      1.0000    
    413      1     21     13      1.0000    
    414      1     21     14      1.0000    
    415      1     21     15      1.0000    
    416      1     21     16      1.0000    
    417      1     21     17      1.0000    
    418      1     21     18      1.0000    
    419      1     21     19      1.0000    
    420      1     21     20      1.0000    
    421      1     21     21      1.0000    
    422      1     21     22      1.0000    
    423      1     21     23      1.0000    
    424      1     21     24      1.0000    
    425      1     21     25      1.0000    
    426      1     21     26      1.0000    
    427      1     21     27      1.0000    
    428      1     21     28      1.0000    
    429      1     21     29      1.0000    
    430      1     21     30      1.0000    
    431      1     21     31      1.0000    
    432      1     21     32      1.0000    
    433      1     21     33      1.0000    
    434      1     21     34      1.0000    
    435      1     21     35      1.0000    
    436      1     21     36      1.0000    
    437      1     21     37      1.0000    
    438      1     21     38      1.0000    
    439      1     21     39      1.0000    
    440      1     21     40      1.0000    
    441      1     21     41      1.0000    
    442      1     21     42      1.0000    
    443      1     21     43      1.0000    
    444      1     21     44      1.0000    
    445      1     21     45      1.0000    
    446      1     21     46      1.0000    
    447      1     21     47      1.0000    
    448      1     21     48      1.0000    
    449      1     21     49      1.0000    
    450      1     21     50      1.0000    
    451      1     21     51      1.0000    
    452      1     22     11      1.0000    
    453      1     22     12      1.0000    
    454      1     22     13      1.0000    
    455      1     22     14      1.0000    
    456      1     22     15      1.0000    
    457      1     22     16      1.0000    
    458      1     22     17      1.0000    
    459      1     22     18      1.0000    
    460      1     22     19      1.0000    
    461      1     22     20      1.0000    
    462      1     22     21      1.0000    
    463      1     22     22      1.0000    
    464      1     22     23      1.0000    
    465      1     22     24      1.0000    
    466      1     22     25      1.0000    
    467      1     22     26      1.0000    
    468      1     22     27      1.0000    
    469      1     22     28      1.0000    
    470      1     22     29      1.0000    
    471      1     22     30      1.0000    
    472      1     22     31      1.0000    
    473      1     22     32      1.0000    
    474      1     22     33      1.0000    
    475      1     22     34      1.0000    
    476      1     22     35      1.0000    
    477      1     22     36      1.0000    
    478      1     22     37      1.0000    
    479      1     22     38      1.0000    
    480      1     22     39      1.0000    
    481      1     22     40      1.0000    
    482      1     22     41      1.0000    
    483      1     22     42      1.0000    
    484      1     22     43      1.0000    
    485      1     22     44      1.0000    
    486      1     22     45      1.0000    
    487      1     22     46      1.0000    
    488      1     22     47      1.0000    
    489      1     22     48      1.0000    
    490      1     22     49      1.0000    
    491      1     22     50      1.0000    
    492      1     22     51      1.0000    
    493      1     23     11      1.0000    
    494      1     23     12      1.0000    
    495      1     23     13      1.0000    
    496      1     23     14      1.0000    
    497      1     23     15      1.0000    
    498      1     23     16      1.0000    
    499      1     23     17      1.0000    
    500      1     23     18      1.0000    
    501      1     23     19      1.0000    
    502      1     23     20      1.0000    
    503      1     23     21      1.0000    
    504      1     23     22      1.0000    
    505      1     23     23      1.0000    
    506      1     23     24      1.0000    
    507      1     23     25      1.0000    
    508      1     23     26      1.0000    
    509      1     23     27      1.0000    
    510      1     23     28      1.0000    
    511      1     23     29      1.0000    
    512      1     23     30      1.0000    
    513      1     23     31      1.0000    
    514      1     23     32      1.0000    
    515      1     23     33      1.0000    
    516      1     23     34      1.0000    
    517      1     23     35      1.0000    
    518      1     23     36      1.0000    
    519      1     23     37      1.0000    
    520      1     23     38      1.0000    
    521      1     23     39      1.0000    
    522      1     23     40      1.0000    
    523      1     23     41      1.0000    
    524      1     23     42      1.0000    
    525      1     23     43      1.0000    
    526      1     23     44      1.0000    
    527      1     23     45      1.0000    
    528      1     23     46      1.0000    
    529      1     23     47      1.0000    
    530      1     23     48      1.0000    
    531      1     23     49      1.0000    
    532      1     23     50      1.0000    
    533      1     23     51      1.0000    
    534      1     24     11      1.0000    
    535      1     24     12      1.0000    
    536      1     24     13      1.0000    
    537      1     24     14      1.0000    
    538      1     24     15      1.0000    
    539      1     24     16      1.0000    
    540      1     24     17      1.0000    
    541      1     24     18      1.0000    
    542      1     24     19      1.0000    
    543      1     24     20      1.0000    
    544      1     24     21      1.0000    
    545      1     24     22      1.0000    
    546      1     24     23      1.0000    
    547      1     24     24      1.0000    
    548      1     24     25      1.0000    
    549      1     24     26      1.0000    
    550      1     24     27      1.0000    
    551      1     24     28      1.0000    
    552      1     24     29      1.0000    
    553      1     24     30      1.0000    
    554      1     24     31      1.0000    
    555      1     24     32      1.0000    
    556      1     24     33      1.0000    
    557      1     24     34      1.0000    
    558      1     24     35      1.0000    
    559      1     24     36      1.0000    
    560      1     24     37      1.0000    
    561      1     24     38      1.0000    
    562      1     24     39      1.0000    
    563      1     24     40      1.0000    
    564      1     24     41      1.0000    
    565      1     24     42      1.0000    
    566      1     24     43      1.0000    
    567      1     24     44      1.0000    
    568      1     24     45      1.0000    
    569      1     24     46      1.0000    
    570      1     24     47      1.0000    
    571      1     24     48      1.0000    
    572      1     24     49      1.0000    
    573      1     24     50      1.0000    
    574      1     24     51      1.0000    
    575      1     25     11      1.0000    
    576      1     25     12      1.0000    
    577      1     25     13      1.0000    
    578      1     25     14      1.0000    
    579      1     25     15      1.0000    
    580      1     25     16      1.0000    
    581      1     25     17      1.0000    
    582      1     25     18      1.0000    
    583      1     25     19      1.0000    
    584      1     25     20      1.0000    
    585      1     25     21      1.0000    
    586      1     25     22      1.0000    
    587      1     25     23      1.0000    
    588      1     25     24      1.0000    
    589      1     25     25      1.0000    
    590      1     25     26      1.0000    
    591      1     25     27      1.0000    
    592      1     25     28      1.0000    
    593      1     25     29      1.0000    
    594      1     25     30      1.0000    
    595      1     25     31      1.0000    
    596      1     25     32      1.0000    
    597      1     25     33      1.0000    
    598      1     25     34      1.0000    
    599      1     25     35      1.0000    
    600      1     25     36      1.0000    
    601      1     25     37      1.0000    
    602      1     25     38      1.0000    
    603      1     25     39      1.0000    
    604      1     25     40      1.0000    
    605      1     25     41      1.0000    
    606      1     25     42      1.0000    
    607      1     25     43      1.0000    
    608      1     25     44      1.0000    
    609      1     25     45      1.0000    
    610      1     25     46      1.0000    
    611      1     25     47      1.0000    
    612      1     25     48      1.0000    
    613      1     25     49      1.0000    
    614      1     25     50      1.0000    
    615      1     25     51      1.0000    
    616      1     26     11      1.0000    
    617      1     26     12      1.0000    
    618      1     26     13      1.0000    
    619      1     26     14      1.0000    
    620      1     26     15      1.0000    
    621      1     26     16      1.0000    
    622      1     26     17      1.0000    
    623      1     26     18      1.0000    
    624      1     26     19      1.0000    
    625      1     26     20      1.0000    
    626      1     26     21      1.0000    
    627      1     26     22      1.0000    
    628      1     26     23      1.0000    
    629      1     26     24      1.0000    
    630      1     26     25      1.0000    
    631      1     26     26      1.0000    
    632      1     26     27      1.0000    
    633      1     26     28      1.0000    
    634      1     26     29      1.0000    
    635      1     26     30      1.0000    
    636      1     26     31      1.0000    
    637      1     26     32      1.0000    
    638      1     26     33      1.0000    
    639      1     26     34      1.0000    
    640      1     26     35      1.0000    
    641      1     26     36      1.0000    
    642      1     26     37      1.0000    
    643      1     26     38      1.0000    
    644      1     26     39      1.0000    
    645      1     26     40      1.0000    
    646      1     26     41      1.0000    
    647      1     26     42      1.0000    
    648      1     26     43      1.0000    
    649      1     26     44      1.0000    
    650      1     26     45      1.0000    
    651      1     26     46      1.0000    
    652      1     26     47      1.0000    
    653      1     26     48      1.0000    
    654      1     26     49      1.0000    
    655      1     26     50      1.0000    
    656      1     26     51      1.0000    
    657      1     27     11      1.0000    
    658      1     27     12      1.0000    
    659      1     27     13      1.0000    
    660      1     27     14      1.0000    
    661      1     27     15      1.0000    
    662      1     27     16      1.0000    
    663      1     27     17      1.0000    
    664      1     27     18      1.0000    
    665      1     27     19      1.0000    
    666      1     27     20      1.0000    
    667      1     27     21      1.0000    
    668      1     27     22      1.0000    
    669      1     27     23      1.0000    
    670      1     27     24      1.0000    
    671      1     27     25      1.0000    
    672      1     27     26      1.0000    
    673      1     27     27      1.0000    
    674      1     27     28      1.0000    
    675      1     27     29      1.0000    
    676      1     27     30      1.0000    
    677      1     27     31      1.0000    
    678      1     27     32      1.0000    
    679      1     27     33      1.0000    
    680      1     27     34      1.0000    
    681      1     27     35      1.0000    
    682      1     27     36      1.0000    
    683      1     27     37      1.0000    
    684      1     27     38      1.0000    
    685      1     27     39      1.0000    
    686      1     27     40      1.0000    
    687      1     27     41      1.0000    
    688      1     27     42      1.0000    
    689      1     27     43      1.0000    
    690      1     27     44      1.0000    
    691      1     27     45      1.0000    
    692      1     27     46      1.0000    
    693      1     27     47      1.0000    
    694      1     27     48      1.0000    
    695      1     27     49      1.0000    
    696      1     27     50      1.0000    
    697      1     27     51      1.0000    
    698      1     28     11      1.0000    
    699      1     28     12      1.0000    
    700      1     28     13      1.0000    
    701      1     28     14      1.0000    
    702      1     28     15      1.0000    
    703      1     28     16      1.0000    
    704      1     28     17      1.0000    
    705      1     28     18      1.0000    
    706      1     28     19      1.0000    
    707      1     28     20      1.0000    
    708      1     28     21      1.0000    
    709      1     28     22      1.0000    
    710      1     28     23      1.0000    
    711      1     28     24      1.0000    
    712      1     28     25      1.0000    
    713      1     28     26      1.0000    
    714      1     28     27      1.0000    
    715      1     28     28      1.0000    
    716      1     28     29      1.0000    
    717      1     28     30      1.0000    
    718      1     28     31      1.0000    
    719      1     28     32      1.0000    
    720      1     28     33      1.0000    
    721      1     28     34      1.0000    
    722      1     28     35      1.0000    
    723      1     28     36      1.0000    
    724      1     28     37      1.0000    
    725      1     28     38      1.0000    
    726      1     28     39      1.0000    
    727      1     28     40      1.0000    
    728      1     28     41      1.0000    
    729      1     28     42      1.0000    
    730      1     28     43      1.0000    
    731      1     28     44      1.0000    
    732      1     28     45      1.0000    
    733      1     28     46      1.0000    
    734      1     28     47      1.0000    
    735      1     28     48      1.0000    
    736      1     28     49      1.0000    
    737      1     28     50      1.0000    
    738      1     28     51      1.0000    
    739      1     29     11      1.0000    
    740      1     29     12      1.0000    
    741      1     29     13      1.0000    
    742      1     29     14      1.0000    
    743      1     29     15      1.0000    
    744      1     29     16      1.0000    
    745      1     29     17      1.0000    
    746      1     29     18      1.0000    
    747      1     29     19      1.0000    
    748      1     29     20      1.0000    
    749      1     29     21      1.0000    
    750      1     29     22      1.0000    
    751      1     29     23      1.0000    
    752      1     29     24      1.0000    
    753      1     29     25      1.0000    
    754      1     29     26      1.0000    
    755      1     29     27      1.0000    
    756      1     29     28      1.0000    
    757      1     29     29      1.0000    
    758      1     29     30      1.0000    
    759      1     29     31      1.0000    
    760      1     29     32      1.0000    
    761      1     29     33      1.0000    
    762      1     29     34      1.0000    
    763      1     29     35      1.0000    
    764      1     29     36      1.0000    
    765      1     29     37      1.0000    
    766      1     29     38      1.0000    
    767      1     29     39      1.0000    
    768      1     29     40      1.0000    
    769      1     29     41      1.0000    
    770      1     29     42      1.0000    
    771      1     29     43      1.0000    
    772      1     29     44      1.0000    
    773      1     29     45      1.0000    
    774      1     29     46      1.0000    
    775      1     29     47      1.0000    
    776      1     29     48      1.0000    
    777      1     29     49      1.0000    
    778      1     29     50      1.0000    
    779      1     29     51      1.0000    
    780      1     30     11      1.0000    
    781      1     30     12      1.0000    
    782      1     30     13      1.0000    
    783      1     30     14      1.0000    
    784      1     30     15      1.0000    
    785      1     30     16      1.0000    
    786      1     30     17      1.0000    
    787      1     30     18      1.0000    
    788      1     30     19      1.0000    
    789      1     30     20      1.0000    
    790      1     30     21      1.0000    
    791      1     30     22      1.0000    
    792      1     30     23      1.0000    
    793      1     30     24      1.0000    
    794      1     30     25      1.0000    
    795      1     30     26      1.0000    
    796      1     30     27      1.0000    
    797      1     30     28      1.0000    
    798      1     30     29      1.0000    
    799      1     30     30      1.0000    
    800      1     30     31      1.0000    
    801      1     30     32      1.0000    
    802      1     30     33      1.0000    
    803      1     30     34      1.0000    
    804      1     30     35      1.0000    
    805      1     30     36      1.0000    
    806      1     30     37      1.0000    
    807      1     30     38      1.0000    
    808      1     30     39      1.0000    
    809      1     30     40      1.0000    
    810      1     30     41      1.0000    
    811      1     30     42      1.0000    
    812      1     30     43      1.0000    
    813      1     30     44      1.0000    
    814      1     30     45      1.0000    
    815      1     30     46      1.0000    
    816      1     30     47      1.0000    
    817      1     30     48      1.0000    
    818      1     30     49      1.0000    
    819      1     30     50      1.0000    
    820      1     30     51      1.0000    
    821      1     31     11      1.0000    
    822      1     31     12      1.0000    
    823      1     31     13      1.0000    
    824      1     31     14      1.0000    
    825      1     31     15      1.0000    
    826      1     31     16      1.0000    
    827      1     31     17      1.0000    
    828      1     31     18      1.0000    
    829      1     31     19      1.0000    
    830      1     31     20      1.0000    
    831      1     31     21      1.0000    
    832      1     31     22      1.0000    
    833      1     31     23      1.0000    
    834      1     31     24      1.0000    
    835      1     31     25      1.0000    
    836      1     31     26      1.0000    
    837      1     31     27      1.0000    
    838      1     31     28      1.0000    
    839      1     31     29      1.0000    
    840      1     31     30      1.0000    
    841      1     31     31      1.0000    
    842      1     31     32      1.0000    
    843      1     31     33      1.0000    
    844      1     31     34      1.0000    
    845      1     31     35      1.0000    
    846      1     31     36      1.0000    
    847      1     31     37      1.0000    
    848      1     31     38      1.0000    
    849      1     31     39      1.0000    
    850      1     31     40      1.0000    
    851      1     31     41      1.0000    
    852      1     31     42      1.0000    
    853      1     31     43      1.0000    
    854      1     31     44      1.0000    
    855      1     31     45      1.0000    
    856      1     31     46      1.0000    
    857      1     31     47      1.0000    
    858      1     31     48      1.0000    
    859      1     31     49      1.0000    
    860      1     31     50      1.0000    
    861      1     31     51      1.0000    
    862      1     32     11      1.0000    
    863      1     32     12      1.0000    
    864      1     32     13      1.0000    
    865      1     32     14      1.0000    
    866      1     32     15      1.0000    
    867      1     32     16      1.0000    
    868      1     32     17      1.0000    
    869      1     32     18      1.0000    
    870      1     32     19      1.0000    
    871      1     32     20      1.0000    
    872      1     32     21      1.0000    
    873      1     32     22      1.0000    
    874      1     32     23      1.0000    
    875      1     32     24      1.0000    
    876      1     32     25      1.0000    
    877      1     32     26      1.0000    
    878      1     32     27      1.0000    
    879      1     32     28      1.0000    
    880      1     32     29      1.0000    
    881      1     32     30      1.0000    
    882      1     32     31      1.0000    
    883      1     32     32      1.0000    
    884      1     32     33      1.0000    
    885      1     32     34      1.0000    
    886      1     32     35      1.0000    
    887      1     32     36      1.0000    
    888      1     32     37      1.0000    
    889      1     32     38      1.0000    
    890      1     32     39      1.0000    
    891      1     32     40      1.0000    
    892      1     32     41      1.0000    
    893      1     32     42      1.0000    
    894      1     32     43      1.0000    
    895      1     32     44      1.0000    
    896      1     32     45      1.0000    
    897      1     32     46      1.0000    
    898      1     32     47      1.0000    
    899      1     32     48      1.0000    
    900      1     32     49      1.0000    
    901      1     32     50      1.0000    
    902      1     32     51      1.0000    
    903      1     33     11      1.0000    
    904      1     33     12      1.0000    
    905      1     33     13      1.0000    
    906      1     33     14      1.0000    
    907      1     33     15      1.0000    
    908      1     33     16      1.0000    
    909      1     33     17      1.0000    
    910      1     33     18      1.0000    
    911      1     33     19      1.0000    
    912      1     33     20      1.0000    
    913      1     33     21      1.0000    
    914      1     33     22      1.0000    
    915      1     33     23      1.0000    
    916      1     33     24      1.0000    
    917      1     33     25      1.0000    
    918      1     33     26      1.0000    
    919      1     33     27      1.0000    
    920      1     33     28      1.0000    
    921      1     33     29      1.0000    
    922      1     33     30      1.0000    
    923      1     33     31      1.0000    
    924      1     33     32      1.0000    
    925      1     33     33      1.0000    
    926      1     33     34      1.0000    
    927      1     33     35      1.0000    
    928      1     33     36      1.0000    
    929      1     33     37      1.0000    
    930      1     33     38      1.0000    
    931      1     33     39      1.0000    
    932      1     33     40      1.0000    
    933      1     33     41      1.0000    
    934      1     33     42      1.0000    
    935      1     33     43      1.0000    
    936      1     33     44      1.0000    
    937      1     33     45      1.0000    
    938      1     33     46      1.0000    
    939      1     33     47      1.0000    
    940      1     33     48      1.0000    
    941      1     33     49      1.0000    
    942      1     33     50      1.0000    
    943      1     33     51      1.0000    
    944      1     34     11      1.0000    
    945      1     34     12      1.0000    
    946      1     34     13      1.0000    
    947      1     34     14      1.0000    
    948      1     34     15      1.0000    
    949      1     34     16      1.0000    
    950      1     34     17      1.0000    
    951      1     34     18      1.0000    
    952      1     34     19      1.0000    
    953      1     34     20      1.0000    
    954      1     34     21      1.0000    
    955      1     34     22      1.0000    
    956      1     34     23      1.0000    
    957      1     34     24      1.0000    
    958      1     34     25      1.0000    
    959      1     34     26      1.0000    
    960      1     34     27      1.0000    
    961      1     34     28      1.0000    
    962      1     34     29      1.0000    
    963      1     34     30      1.0000    
    964      1     34     31      1.0000    
    965      1     34     32      1.0000    
    966      1     34     33      1.0000    
    967      1     34     34      1.0000    
    968      1     34     35      1.0000    
    969      1     34     36      1.0000    
    970      1     34     37      1.0000    
    971      1     34     38      1.0000    
    972      1     34     39      1.0000    
    973      1     34     40      1.0000    
    974      1     34     41      1.0000    
    975      1     34     42      1.0000    
    976      1     34     43      1.0000    
    977      1     34     44      1.0000    
    978      1     34     45      1.0000    
    979      1     34     46      1.0000    
    980      1     34     47      1.0000    
    981      1     34     48      1.0000    
    982      1     34     49      1.0000    
    983      1     34     50      1.0000    
    984      1     34     51      1.0000    
    985      1     35     11      1.0000    
    986      1     35     12      1.0000    
    987      1     35     13      1.0000    
    988      1     35     14      1.0000    
    989      1     35     15      1.0000    
    990      1     35     16      1.0000    
    991      1     35     17      1.0000    
    992      1     35     18      1.0000    
    993      1     35     19      1.0000    
    994      1     35     20      1.0000    
    995      1     35     21      1.0000    
    996      1     35     22      1.0000    
    997      1     35     23      1.0000    
    998      1     35     24      1.0000    
    999      1     35     25      1.0000    
   1000      1     35     26      1.0000    
   1001      1     35     27      1.0000    
   1002      1     35     28      1.0000    
   1003      1     35     29      1.0000    
   1004      1     35     30      1.0000    
   1005      1     35     31      1.0000    
   1006      1     35     32      1.0000    
   1007      1     35     33      1.0000    
   1008      1     35     34      1.0000    
   1009      1     35     35      1.0000    
   1010      1     35     36      1.0000    
   1011      1     35     37      1.0000    
   1012      1     35     38      1.0000    
   1013      1     35     39      1.0000    
   1014      1     35     40      1.0000    
   1015      1     35     41      1.0000    
   1016      1     35     42      1.0000    
   1017      1     35     43      1.0000    
   1018      1     35     44      1.0000    
   1019      1     35     45      1.0000    
   1020      1     35     46      1.0000    
   1021      1     35     47      1.0000    
   1022      1     35     48      1.0000    
   1023      1     35     49      1.0000    
   1024      1     35     50      1.0000    
   1025      1     35     51      1.0000    
   1026      1     36     11      1.0000    
   1027      1     36     12      1.0000    
   1028      1     36     13      1.0000    
   1029      1     36     14      1.0000    
   1030      1     36     15      1.0000    
   1031      1     36     16      1.0000    
   1032      1     36     17      1.0000    
   1033      1     36     18      1.0000    
   1034      1     36     19      1.0000    
   1035      1     36     20      1.0000    
   1036      1     36     21      1.0000    
   1037      1     36     22      1.0000    
   1038      1     36     23      1.0000    
   1039      1     36     24      1.0000    
   1040      1     36     25      1.0000    
   1041      1     36     26      1.0000    
   1042      1     36     27      1.0000    
   1043      1     36     28      1.0000    
   1044      1     36     29      1.0000    
   1045      1     36     30      1.0000    
   1046      1     36     31      1.0000    
   1047      1     36     32      1.0000    
   1048      1     36     33      1.0000    
   1049      1     36     34      1.0000    
   1050      1     36     35      1.0000    
   1051      1     36     36      1.0000    
   1052      1     36     37      1.0000    
   1053      1     36     38      1.0000    
   1054      1     36     39      1.0000    
   1055      1     36     40      1.0000    
   1056      1     36     41      1.0000    
   1057      1     36     42      1.0000    
   1058      1     36     43      1.0000    
   1059      1     36     44      1.0000    
   1060      1     36     45      1.0000    
   1061      1     36     46      1.0000    
   1062      1     36     47      1.0000    
   1063      1     36     48      1.0000    
   1064      1     36     49      1.0000    
   1065      1     36     50      1.0000    
   1066      1     36     51      1.0000    
   1067      1     37     11      1.0000    
   1068      1     37     12      1.0000    
   1069      1     37     13      1.0000    
   1070      1     37     14      1.0000    
   1071      1     37     15      1.0000    
   1072      1     37     16      1.0000    
   1073      1     37     17      1.0000    
   1074      1     37     18      1.0000    
   1075      1     37     19      1.0000    
   1076      1     37     20      1.0000    
   1077      1     37     21      1.0000    
   1078      1     37     22      1.0000    
   1079      1     37     23      1.0000    
   1080      1     37     24      1.0000    
   1081      1     37     25      1.0000    
   1082      1     37     26      1.0000    
   1083      1     37     27      1.0000    
   1084      1     37     28      1.0000    
   1085      1     37     29      1.0000    
   1086      1     37     30      1.0000    
   1087      1     37     31      1.0000    
   1088      1     37     32      1.0000    
   1089      1     37     33      1.0000    
   1090      1     37     34      1.0000    
   1091      1     37     35      1.0000    
   1092      1     37     36      1.0000    
   1093      1     37     37      1.0000    
   1094      1     37     38      1.0000    
   1095      1     37     39      1.0000    
   1096      1     37     40      1.0000    
   1097      1     37     41      1.0000    
   1098      1     37     42      1.0000    
   1099      1     37     43      1.0000    
   1100      1     37     44      1.0000    
   1101      1     37     45      1.0000    
   1102      1     37     46      1.0000    
   1103      1     37     47      1.0000    
   1104      1     37     48      1.0000    
   1105      1     37     49      1.0000    
   1106      1     37     50      1.0000    
   1107      1     37     51      1.0000    
   1108      1     38     11      1.0000    
   1109      1     38     12      1.0000    
   1110      1     38     13      1.0000    
   1111      1     38     14      1.0000    
   1112      1     38     15      1.0000    
   1113      1     38     16      1.0000    
   1114      1     38     17      1.0000    
   1115      1     38     18      1.0000    
   1116      1     38     19      1.0000    
   1117      1     38     20      1.0000    
   1118      1     38     21      1.0000    
   1119      1     38     22      1.0000    
   1120      1     38     23      1.0000    
   1121      1     38     24      1.0000    
   1122      1     38     25      1.0000    
   1123      1     38     26      1.0000    
   1124      1     38     27      1.0000    
   1125      1     38     28      1.0000    
   1126      1     38     29      1.0000    
   1127      1     38     30      1.0000    
   1128      1     38     31      1.0000    
   1129      1     38     32      1.0000    
   1130      1     38     33      1.0000    
   1131      1     38     34      1.0000    
   1132      1     38     35      1.0000    
   1133      1     38     36      1.0000    
   1134      1     38     37      1.0000    
   1135      1     38     38      1.0000    
   1136      1     38     39      1.0000    
   1137      1     38     40      1.0000    
   1138      1     38     41      1.0000    
   1139      1     38     42      1.0000    
   1140      1     38     43      1.0000    
   1141      1     38     44      1.0000    
   1142      1     38     45      1.0000    
   1143      1     38     46      1.0000    
   1144      1     38     47      1.0000    
   1145      1     38     48      1.0000    
   1146      1     38     49      1.0000    
   1147      1     38     50      1.0000    
   1148      1     38     51      1.0000    
   1149      1     39     11      1.0000    
   1150      1     39     12      1.0000    
   1151      1     39     13      1.0000    
   1152      1     39     14      1.0000    
   1153      1     39     15      1.0000    
   1154      1     39     16      1.0000    
   1155      1     39     17      1.0000    
   1156      1     39     18      1.0000    
   1157      1     39     19      1.0000    
   1158      1     39     20      1.0000    
   1159      1     39     21      1.0000    
   1160      1     39     22      1.0000    
   1161      1     39     23      1.0000    
   1162      1     39     24      1.0000    
   1163      1     39     25      1.0000    
   1164      1     39     26      1.0000    
   1165      1     39     27      1.0000    
   1166      1     39     28      1.0000    
   1167      1     39     29      1.0000    
   1168      1     39     30      1.0000    
   1169      1     39     31      1.0000    
   1170      1     39     32      1.0000    
   1171      1     39     33      1.0000    
   1172      1     39     34      1.0000    
   1173      1     39     35      1.0000    
   1174      1     39     36      1.0000    
   1175      1     39     37      1.0000    
   1176      1     39     38      1.0000    
   1177      1     39     39      1.0000    
   1178      1     39     40      1.0000    
   1179      1     39     41      1.0000    
   1180      1     39     42      1.0000    
   1181      1     39     43      1.0000    
   1182      1     39     44      1.0000    
   1183      1     39     45      1.0000    
   1184      1     39     46      1.0000    
   1185      1     39     47      1.0000    
   1186      1     39     48      1.0000    
   1187      1     39     49      1.0000    
   1188      1     39     50      1.0000    
   1189      1     39     51      1.0000    
   1190      1     40     11      1.0000    
   1191      1     40     12      1.0000    
   1192      1     40     13      1.0000    
   1193      1     40     14      1.0000    
   1194      1     40     15      1.0000    
   1195      1     40     16      1.0000    
   1196      1     40     17      1.0000    
   1197      1     40     18      1.0000    
   1198      1     40     19      1.0000    
   1199      1     40     20      1.0000    
   1200      1     40     21      1.0000    
   1201      1     40     22      1.0000    
   1202      1     40     23      1.0000    
   1203      1     40     24      1.0000    
   1204      1     40     25      1.0000    
   1205      1     40     26      1.0000    
   1206      1     40     27      1.0000    
   1207      1     40     28      1.0000    
   1208      1     40     29      1.0000    
   1209      1     40     30      1.0000    
   1210      1     40     31      1.0000    
   1211      1     40     32      1.0000    
   1212      1     40     33      1.0000    
   1213      1     40     34      1.0000    
   1214      1     40     35      1.0000    
   1215      1     40     36      1.0000    
   1216      1     40     37      1.0000    
   1217      1     40     38      1.0000    
   1218      1     40     39      1.0000    
   1219      1     40     40      1.0000    
   1220      1     40     41      1.0000    
   1221      1     40     42      1.0000    
   1222      1     40     43      1.0000    
   1223      1     40     44      1.0000    
   1224      1     40     45      1.0000    
   1225      1     40     46      1.0000    
   1226      1     40     47      1.0000    
   1227      1     40     48      1.0000    
   1228      1     40     49      1.0000    
   1229      1     40     50      1.0000    
   1230      1     40     51      1.0000    
   1231      1     41     11      1.0000    
   1232      1     41     12      1.0000    
   1233      1     41     13      1.0000    
   1234      1     41     14      1.0000    
   1235      1     41     15      1.0000    
   1236      1     41     16      1.0000    
   1237      1     41     17      1.0000    
   1238      1     41     18      1.0000    
   1239      1     41     19      1.0000    
   1240      1     41     20      1.0000    
   1241      1     41     21      1.0000    
   1242      1     41     22      1.0000    
   1243      1     41     23      1.0000    
   1244      1     41     24      1.0000    
   1245      1     41     25      1.0000    
   1246      1     41     26      1.0000    
   1247      1     41     27      1.0000    
   1248      1     41     28      1.0000    
   1249      1     41     29      1.0000    
   1250      1     41     30      1.0000    
   1251      1     41     31      1.0000    
   1252      1     41     32      1.0000    
   1253      1     41     33      1.0000    
   1254      1     41     34      1.0000    
   1255      1     41     35      1.0000    
   1256      1     41     36      1.0000    
   1257      1     41     37      1.0000    
   1258      1     41     38      1.0000    
   1259      1     41     39      1.0000    
   1260      1     41     40      1.0000    
   1261      1     41     41      1.0000    
   1262      1     41     42      1.0000    
   1263      1     41     43      1.0000    
   1264      1     41     44      1.0000    
   1265      1     41     45      1.0000    
   1266      1     41     46      1.0000    
   1267      1     41     47      1.0000    
   1268      1     41     48      1.0000    
   1269      1     41     49      1.0000    
   1270      1     41     50      1.0000    
   1271      1     41     51      1.0000    
   1272      1     42     11      1.0000    
   1273      1     42     12      1.0000    
   1274      1     42     13      1.0000    
   1275      1     42     14      1.0000    
   1276      1     42     15      1.0000    
   1277      1     42     16      1.0000    
   1278      1     42     17      1.0000    
   1279      1     42     18      1.0000    
   1280      1     42     19      1.0000    
   1281      1     42     20      1.0000    
   1282      1     42     21      1.0000    
   1283      1     42     22      1.0000    
   1284      1     42     23      1.0000    
   1285      1     42     24      1.0000    
   1286      1     42     25      1.0000    
   1287      1     42     26      1.0000    
   1288      1     42     27      1.0000    
   1289      1     42     28      1.0000    
   1290      1     42     29      1.0000    
   1291      1     42     30      1.0000    
   1292      1     42     31      1.0000    
   1293      1     42     32      1.0000    
   1294      1     42     33      1.0000    
   1295      1     42     34      1.0000    
   1296      1     42     35      1.0000    
   1297      1     42     36      1.0000    
   1298      1     42     37      1.0000    
   1299      1     42     38      1.0000    
   1300      1     42     39      1.0000    
   1301      1     42     40      1.0000    
   1302      1     42     41      1.0000    
   1303      1     42     42      1.0000    
   1304      1     42     43      1.0000    
   1305      1     42     44      1.0000    
   1306      1     42     45      1.0000    
   1307      1     42     46      1.0000    
   1308      1     42     47      1.0000    
   1309      1     42     48      1.0000    
   1310      1     42     49      1.0000    
   1311      1     42     50      1.0000    
   1312      1     42     51      1.0000    
   1313      1     43     11      1.0000    
   1314      1     43     12      1.0000    
   1315      1     43     13      1.0000    
   1316      1     43     14      1.0000    
   1317      1     43     15      1.0000    
   1318      1     43     16      1.0000    
   1319      1     43     17      1.0000    
   1320      1     43     18      1.0000    
   1321      1     43     19      1.0000    
   1322      1     43     20      1.0000    
   1323      1     43     21      1.0000    
   1324      1     43     22      1.0000    
   1325      1     43     23      1.0000    
   1326      1     43     24      1.0000    
   1327      1     43     25      1.0000    
   1328      1     43     26      1.0000    
   1329      1     43     27      1.0000    
   1330      1     43     28      1.0000    
   1331      1     43     29      1.0000    
   1332      1     43     30      1.0000    
   1333      1     43     31      1.0000    
   1334      1     43     32      1.0000    
   1335      1     43     33      1.0000    
   1336      1     43     34      1.0000    
   1337      1     43     35      1.0000    
   1338      1     43     36      1.0000    
   1339      1     43     37      1.0000    
   1340      1     43     38      1.0000    
   1341      1     43     39      1.0000    
   1342      1     43     40      1.0000    
   1343      1     43     41      1.0000    
   1344      1     43     42      1.0000    
   1345      1     43     43      1.0000    
   1346      1     43     44      1.0000    
   1347      1     43     45      1.0000    
   1348      1     43     46      1.0000    
   1349      1     43     47      1.0000    
   1350      1     43     48      1.0000    
   1351      1     43     49      1.0000    
   1352      1     43     50      1.0000    
   1353      1     43     51      1.0000    
   1354      1     44     11      1.0000    
   1355      1     44     12      1.0000    
   1356      1     44     13      1.0000    
   1357      1     44     14      1.0000    
   1358      1     44     15      1.0000    
   1359      1     44     16      1.0000    
   1360      1     44     17      1.0000    
   1361      1     44     18      1.0000    
   1362      1     44     19      1.0000    
   1363      1     44     20      1.0000    
   1364      1     44     21      1.0000    
   1365      1     44     22      1.0000    
   1366      1     44     23      1.0000    
   1367      1     44     24      1.0000    
   1368      1     44     25      1.0000    
   1369      1     44     26      1.0000    
   1370      1     44     27      1.0000    
   1371      1     44     28      1.0000    
   1372      1     44     29      1.0000    
   1373      1     44     30      1.0000    
   1374      1     44     31      1.0000    
   1375      1     44     32      1.0000    
   1376      1     44     33      1.0000    
   1377      1     44     34      1.0000    
   1378      1     44     35      1.0000    
   1379      1     44     36      1.0000    
   1380      1     44     37      1.0000    
   1381      1     44     38      1.0000    
   1382      1     44     39      1.0000    
   1383      1     44     40      1.0000    
   1384      1     44     41      1.0000    
   1385      1     44     42      1.0000    
   1386      1     44     43      1.0000    
   1387      1     44     44      1.0000    
   1388      1     44     45      1.0000    
   1389      1     44     46      1.0000    
   1390      1     44     47      1.0000    
   1391      1     44     48      1.0000    
   1392      1     44     49      1.0000    
   1393      1     44     50      1.0000    
   1394      1     44     51      1.0000    
   1395      1     45     11      1.0000    
   1396      1     45     12      1.0000    
   1397      1     45     13      1.0000    
   1398      1     45     14      1.0000    
   1399      1     45     15      1.0000    
   1400      1     45     16      1.0000    
   1401      1     45     17      1.0000    
   1402      1     45     18      1.0000    
   1403      1     45     19      1.0000    
   1404      1     45     20      1.0000    
   1405      1     45     21      1.0000    
   1406      1     45     22      1.0000    
   1407      1     45     23      1.0000    
   1408      1     45     24      1.0000    
   1409      1     45     25      1.0000    
   1410      1     45     26      1.0000    
   1411      1     45     27      1.0000    
   1412      1     45     28      1.0000    
   1413      1     45     29      1.0000    
   1414      1     45     30      1.0000    
   1415      1     45     31      1.0000    
   1416      1     45     32      1.0000    
   1417      1     45     33      1.0000    
   1418      1     45     34      1.0000    
   1419      1     45     35      1.0000    
   1420      1     45     36      1.0000    
   1421      1     45     37      1.0000    
   1422      1     45     38      1.0000    
   1423      1     45     39      1.0000    
   1424      1     45     40      1.0000    
   1425      1     45     41      1.0000    
   1426      1     45     42      1.0000    
   1427      1     45     43      1.0000    
   1428      1     45     44      1.0000    
   1429      1     45     45      1.0000    
   1430      1     45     46      1.0000    
   1431      1     45     47      1.0000    
   1432      1     45     48      1.0000    
   1433      1     45     49      1.0000    
   1434      1     45     50      1.0000    
   1435      1     45     51      1.0000    
   1436      1     46     11      1.0000    
   1437      1     46     12      1.0000    
   1438      1     46     13      1.0000    
   1439      1     46     14      1.0000    
   1440      1     46     15      1.0000    
   1441      1     46     16      1.0000    
   1442      1     46     17      1.0000    
   1443      1     46     18      1.0000    
   1444      1     46     19      1.0000    
   1445      1     46     20      1.0000    
   1446      1     46     21      1.0000    
   1447      1     46     22      1.0000    
   1448      1     46     23      1.0000    
   1449      1     46     24      1.0000    
   1450      1     46     25      1.0000    
   1451      1     46     26      1.0000    
   1452      1     46     27      1.0000    
   1453      1     46     28      1.0000    
   1454      1     46     29      1.0000    
   1455      1     46     30      1.0000    
   1456      1     46     31      1.0000    
   1457      1     46     32      1.0000    
   1458      1     46     33      1.0000    
   1459      1     46     34      1.0000    
   1460      1     46     35      1.0000    
   1461      1     46     36      1.0000    
   1462      1     46     37      1.0000    
   1463      1     46     38      1.0000    
   1464      1     46     39      1.0000    
   1465      1     46     40      1.0000    
   1466      1     46     41      1.0000    
   1467      1     46     42      1.0000    
   1468      1     46     43      1.0000    
   1469      1     46     44      1.0000    
   1470      1     46     45      1.0000    
   1471      1     46     46      1.0000    
   1472      1     46     47      1.0000    
   1473      1     46     48      1.0000    
   1474      1     46     49      1.0000    
   1475      1     46     50      1.0000    
   1476      1     46     51      1.0000    
   1477      1     47     11      1.0000    
   1478      1     47     12      1.0000    
   1479      1     47     13      1.0000    
   1480      1     47     14      1.0000    
   1481      1     47     15      1.0000    
   1482      1     47     16      1.0000    
   1483      1     47     17      1.0000    
   1484      1     47     18      1.0000    
   1485      1     47     19      1.0000    
   1486      1     47     20      1.0000    
   1487      1     47     21      1.0000    
   1488      1     47     22      1.0000    
   1489      1     47     23      1.0000    
   1490      1     47     24      1.0000    
   1491      1     47     25      1.0000    
   1492      1     47     26      1.0000    
   1493      1     47     27      1.0000    
   1494      1     47     28      1.0000    
   1495      1     47     29      1.0000    
   1496      1     47     30      1.0000    
   1497      1     47     31      1.0000    
   1498      1     47     32      1.0000    
   1499      1     47     33      1.0000    
   1500      1     47     34      1.0000    
   1501      1     47     35      1.0000    
   1502      1     47     36      1.0000    
   1503      1     47     37      1.0000    
   1504      1     47     38      1.0000    
   1505      1     47     39      1.0000    
   1506      1     47     40      1.0000    
   1507      1     47     41      1.0000    
   1508      1     47     42      1.0000    
   1509      1     47     43      1.0000    
   1510      1     47     44      1.0000    
   1511      1     47     45      1.0000    
   1512      1     47     46      1.0000    
   1513      1     47     47      1.0000    
   1514      1     47     48      1.0000    
   1515      1     47     49      1.0000    
   1516      1     47     50      1.0000    
   1517      1     47     51      1.0000    
   1518      1     48     11      1.0000    
   1519      1     48     12      1.0000    
   1520      1     48     13      1.0000    
   1521      1     48     14      1.0000    
   1522      1     48     15      1.0000    
   1523      1     48     16      1.0000    
   1524      1     48     17      1.0000    
   1525      1     48     18      1.0000    
   1526      1     48     19      1.0000    
   1527      1     48     20      1.0000    
   1528      1     48     21      1.0000    
   1529      1     48     22      1.0000    
   1530      1     48     23      1.0000    
   1531      1     48     24      1.0000    
   1532      1     48     25      1.0000    
   1533      1     48     26      1.0000    
   1534      1     48     27      1.0000    
   1535      1     48     28      1.0000    
   1536      1     48     29      1.0000    
   1537      1     48     30      1.0000    
   1538      1     48     31      1.0000    
   1539      1     48     32      1.0000    
   1540      1     48     33      1.0000    
   1541      1     48     34      1.0000    
   1542      1     48     35      1.0000    
   1543      1     48     36      1.0000    
   1544      1     48     37      1.0000    
   1545      1     48     38      1.0000    
   1546      1     48     39      1.0000    
   1547      1     48     40      1.0000    
   1548      1     48     41      1.0000    
   1549      1     48     42      1.0000    
   1550      1     48     43      1.0000    
   1551      1     48     44      1.0000    
   1552      1     48     45      1.0000    
   1553      1     48     46      1.0000    
   1554      1     48     47      1.0000    
   1555      1     48     48      1.0000    
   1556      1     48     49      1.0000    
   1557      1     48     50      1.0000    
   1558      1     48     51      1.0000    
   1559      1     49     11      1.0000    
   1560      1     49     12      1.0000    
   1561      1     49     13      1.0000    
   1562      1     49     14      1.0000    
   1563      1     49     15      1.0000    
   1564      1     49     16      1.0000    
   1565      1     49     17      1.0000    
   1566      1     49     18      1.0000    
   1567      1     49     19      1.0000    
   1568      1     49     20      1.0000    
   1569      1     49     21      1.0000    
   1570      1     49     22      1.0000    
   1571      1     49     23      1.0000    
   1572      1     49     24      1.0000    
   1573      1     49     25      1.0000    
   1574      1     49     26      1.0000    
   1575      1     49     27      1.0000    
   1576      1     49     28      1.0000    
   1577      1     49     29      1.0000    
[...]

     733 UPPER PART EQS.       744 LOWER PART EQS.    BAND WIDTH + 1 =   32
 STRESS PERIOD=  3 TIMESTEP=161 LAYER=  1 ZONE=  2 ACTIVE CELLS= 1477 NUMBER OF EQUATIONS=    1477
 SOLVING FOR ZETA FOR LAYER     2 ZONE     2

     635 UPPER PART EQS.       634 LOWER PART EQS.    BAND WIDTH + 1 =   32
 STRESS PERIOD=  3 TIMESTEP=161 LAYER=  2 ZONE=  2 ACTIVE CELLS= 1269 NUMBER OF EQUATIONS=    1269
 UBUDSV SAVING "      ZETASRF  1" ON UNIT 55 AT TIME STEP161, STRESS PERIOD    3

 HEAD WILL BE SAVED ON UNIT   51 AT END OF TIME STEP  161, STRESS PERIOD    3
 
 SOLVING FOR HEAD 

 OUTPUT CONTROL FOR STRESS PERIOD    3   TIME STEP  162
    SAVE HEAD FOR ALL LAYERS
 SOLVING FOR ZETA FOR LAYER     1 ZONE     2

     731 UPPER PART EQS.       743 LOWER PART EQS.    BAND WIDTH + 1 =   34
 STRESS PERIOD=  3 TIMESTEP=162 LAYER=  1 ZONE=  2 ACTIVE CELLS= 1474 NUMBER OF EQUATIONS=    1474
 SOLVING FOR ZETA FOR LAYER     2 ZONE     2

     635 UPPER PART EQS.       634 LOWER PART EQS.    BAND WIDTH + 1 =   32
 STRESS PERIOD=  3 TIMESTEP=162 LAYER=  2 ZONE=  2 ACTIVE CELLS= 1269 NUMBER OF EQUATIONS=    1269
 UBUDSV SAVING "      ZETASRF  1" ON UNIT 55 AT TIME STEP162, STRESS PERIOD    3

 HEAD WILL BE SAVED ON UNIT   51 AT END OF TIME STEP  162, STRESS PERIOD    3
 
 SOLVING FOR HEAD 

 OUTPUT CONTROL FOR STRESS PERIOD    3   TIME STEP  163
    SAVE HEAD FOR ALL LAYERS
 SOLVING FOR ZETA FOR LAYER     1 ZONE     2

     724 UPPER PART EQS.       737 LOWER PART EQS.    BAND WIDTH + 1 =   34
 STRESS PERIOD=  3 TIMESTEP=163 LAYER=  1 ZONE=  2 ACTIVE CELLS= 1461 NUMBER OF EQUATIONS=    1461
 SOLVING FOR ZETA FOR LAYER     2 ZONE     2

     635 UPPER PART EQS.       634 LOWER PART EQS.    BAND WIDTH + 1 =   32
 STRESS PERIOD=  3 TIMESTEP=163 LAYER=  2 ZONE=  2 ACTIVE CELLS= 1269 NUMBER OF EQUATIONS=    1269
 UBUDSV SAVING "      ZETASRF  1" ON UNIT 55 AT TIME STEP163, STRESS PERIOD    3

 HEAD WILL BE SAVED ON UNIT   51 AT END OF TIME STEP  163, STRESS PERIOD    3
 
 SOLVING FOR HEAD 

 OUTPUT CONTROL FOR STRESS PERIOD    3   TIME STEP  164
    SAVE HEAD FOR ALL LAYERS
 SOLVING FOR ZETA FOR LAYER     1 ZONE     2

     727 UPPER PART EQS.       735 LOWER PART EQS.    BAND WIDTH + 1 =   30
 STRESS PERIOD=  3 TIMESTEP=164 LAYER=  1 ZONE=  2 ACTIVE CELLS= 1462 NUMBER OF EQUATIONS=    1462
 SOLVING FOR ZETA FOR LAYER     2 ZONE     2

     635 UPPER PART EQS.       634 LOWER PART EQS.    BAND WIDTH + 1 =   32
 STRESS PERIOD=  3 TIMESTEP=164 LAYER=  2 ZONE=  2 ACTIVE CELLS= 1269 NUMBER OF EQUATIONS=    1269
 UBUDSV SAVING "      ZETASRF  1" ON UNIT 55 AT TIME STEP164, STRESS PERIOD    3

 HEAD WILL BE SAVED ON UNIT   51 AT END OF TIME STEP  164, STRESS PERIOD    3
 
 SOLVING FOR HEAD 

 OUTPUT CONTROL FOR STRESS PERIOD    3   TIME STEP  165
    SAVE HEAD FOR ALL LAYERS
 SOLVING FOR ZETA FOR LAYER     1 ZONE     2

     733 UPPER PART EQS.       746 LOWER PART EQS.    BAND WIDTH + 1 =   34
 STRESS PERIOD=  3 TIMESTEP=165 LAYER=  1 ZONE=  2 ACTIVE CELLS= 1479 NUMBER OF EQUATIONS=    1479
 SOLVING FOR ZETA FOR LAYER     2 ZONE     2

     635 UPPER PART EQS.       634 LOWER PART EQS.    BAND WIDTH + 1 =   32
 STRESS PERIOD=  3 TIMESTEP=165 LAYER=  2 ZONE=  2 ACTIVE CELLS= 1269 NUMBER OF EQUATIONS=    1269
 UBUDSV SAVING "      ZETASRF  1" ON UNIT 55 AT TIME STEP165, STRESS PERIOD    3

 HEAD WILL BE SAVED ON UNIT   51 AT END OF TIME STEP  165, STRESS PERIOD    3
 
 SOLVING FOR HEAD 

 OUTPUT CONTROL FOR STRESS PERIOD    3   TIME STEP  166
    SAVE HEAD FOR ALL LAYERS
 SOLVING FOR ZETA FOR LAYER     1 ZONE     2

     730 UPPER PART EQS.       742 LOWER PART EQS.    BAND WIDTH + 1 =   34
 STRESS PERIOD=  3 TIMESTEP=166 LAYER=  1 ZONE=  2 ACTIVE CELLS= 1472 NUMBER OF EQUATIONS=    1472
 SOLVING FOR ZETA FOR LAYER     2 ZONE     2

     635 UPPER PART EQS.       634 LOWER PART EQS.    BAND WIDTH + 1 =   32
 STRESS PERIOD=  3 TIMESTEP=166 LAYER=  2 ZONE=  2 ACTIVE CELLS= 1269 NUMBER OF EQUATIONS=    1269
 UBUDSV SAVING "      ZETASRF  1" ON UNIT 55 AT TIME STEP166, STRESS PERIOD    3

 HEAD WILL BE SAVED ON UNIT   51 AT END OF TIME STEP  166, STRESS PERIOD    3
 
 SOLVING FOR HEAD 

 OUTPUT CONTROL FOR STRESS PERIOD    3   TIME STEP  167
    SAVE HEAD FOR ALL LAYERS
 SOLVING FOR ZETA FOR LAYER     1 ZONE     2

     732 UPPER PART EQS.       738 LOWER PART EQS.    BAND WIDTH + 1 =   29
 STRESS PERIOD=  3 TIMESTEP=167 LAYER=  1 ZONE=  2 ACTIVE CELLS= 1470 NUMBER OF EQUATIONS=    1470
 SOLVING FOR ZETA FOR LAYER     2 ZONE     2

     635 UPPER PART EQS.       634 LOWER PART EQS.    BAND WIDTH + 1 =   32
 STRESS PERIOD=  3 TIMESTEP=167 LAYER=  2 ZONE=  2 ACTIVE CELLS= 1269 NUMBER OF EQUATIONS=    1269
 UBUDSV SAVING "      ZETASRF  1" ON UNIT 55 AT TIME STEP167, STRESS PERIOD    3

 HEAD WILL BE SAVED ON UNIT   51 AT END OF TIME STEP  167, STRESS PERIOD    3
 
 SOLVING FOR HEAD 

 OUTPUT CONTROL FOR STRESS PERIOD    3   TIME STEP  168
    SAVE HEAD FOR ALL LAYERS
 SOLVING FOR ZETA FOR LAYER     1 ZONE     2

     726 UPPER PART EQS.       739 LOWER PART EQS.    BAND WIDTH + 1 =   34
 STRESS PERIOD=  3 TIMESTEP=168 LAYER=  1 ZONE=  2 ACTIVE CELLS= 1465 NUMBER OF EQUATIONS=    1465
 SOLVING FOR ZETA FOR LAYER     2 ZONE     2

     635 UPPER PART EQS.       634 LOWER PART EQS.    BAND WIDTH + 1 =   32
 STRESS PERIOD=  3 TIMESTEP=168 LAYER=  2 ZONE=  2 ACTIVE CELLS= 1269 NUMBER OF EQUATIONS=    1269
 UBUDSV SAVING "      ZETASRF  1" ON UNIT 55 AT TIME STEP168, STRESS PERIOD    3

 HEAD WILL BE SAVED ON UNIT   51 AT END OF TIME STEP  168, STRESS PERIOD    3
 
 SOLVING FOR HEAD 

 OUTPUT CONTROL FOR STRESS PERIOD    3   TIME STEP  169
    SAVE HEAD FOR ALL LAYERS
 SOLVING FOR ZETA FOR LAYER     1 ZONE     2

     726 UPPER PART EQS.       744 LOWER PART EQS.    BAND WIDTH + 1 =   39
 STRESS PERIOD=  3 TIMESTEP=169 LAYER=  1 ZONE=  2 ACTIVE CELLS= 1470 NUMBER OF EQUATIONS=    1470
 SOLVING FOR ZETA FOR LAYER     2 ZONE     2

     635 UPPER PART EQS.       634 LOWER PART EQS.    BAND WIDTH + 1 =   32
 STRESS PERIOD=  3 TIMESTEP=169 LAYER=  2 ZONE=  2 ACTIVE CELLS= 1269 NUMBER OF EQUATIONS=    1269
 UBUDSV SAVING "      ZETASRF  1" ON UNIT 55 AT TIME STEP169, STRESS PERIOD    3

 HEAD WILL BE SAVED ON UNIT   51 AT END OF TIME STEP  169, STRESS PERIOD    3
 
 SOLVING FOR HEAD 

 OUTPUT CONTROL FOR STRESS PERIOD    3   TIME STEP  170
    SAVE HEAD FOR ALL LAYERS
 SOLVING FOR ZETA FOR LAYER     1 ZONE     2

     731 UPPER PART EQS.       739 LOWER PART EQS.    BAND WIDTH + 1 =   30
 STRESS PERIOD=  3 TIMESTEP=170 LAYER=  1 ZONE=  2 ACTIVE CELLS= 1470 NUMBER OF EQUATIONS=    1470
 SOLVING FOR ZETA FOR LAYER     2 ZONE     2

     635 UPPER PART EQS.       634 LOWER PART EQS.    BAND WIDTH + 1 =   32
 STRESS PERIOD=  3 TIMESTEP=170 LAYER=  2 ZONE=  2 ACTIVE CELLS= 1269 NUMBER OF EQUATIONS=    1269
 UBUDSV SAVING "      ZETASRF  1" ON UNIT 55 AT TIME STEP170, STRESS PERIOD    3

 HEAD WILL BE SAVED ON UNIT   51 AT END OF TIME STEP  170, STRESS PERIOD    3
 
 SOLVING FOR HEAD 

 OUTPUT CONTROL FOR STRESS PERIOD    3   TIME STEP  171
    SAVE HEAD FOR ALL LAYERS
 SOLVING FOR ZETA FOR LAYER     1 ZONE     2

     734 UPPER PART EQS.       743 LOWER PART EQS.    BAND WIDTH + 1 =   31
 STRESS PERIOD=  3 TIMESTEP=171 LAYER=  1 ZONE=  2 ACTIVE CELLS= 1477 NUMBER OF EQUATIONS=    1477
 SOLVING FOR ZETA FOR LAYER     2 ZONE     2

     635 UPPER PART EQS.       634 LOWER PART EQS.    BAND WIDTH + 1 =   32
 STRESS PERIOD=  3 TIMESTEP=171 LAYER=  2 ZONE=  2 ACTIVE CELLS= 1269 NUMBER OF EQUATIONS=    1269
 UBUDSV SAVING "      ZETASRF  1" ON UNIT 55 AT TIME STEP171, STRESS PERIOD    3

 HEAD WILL BE SAVED ON UNIT   51 AT END OF TIME STEP  171, STRESS PERIOD    3
 
 SOLVING FOR HEAD 

 OUTPUT CONTROL FOR STRESS PERIOD    3   TIME STEP  172
    SAVE HEAD FOR ALL LAYERS
 SOLVING FOR ZETA FOR LAYER     1 ZONE     2

     727 UPPER PART EQS.       740 LOWER PART EQS.    BAND WIDTH + 1 =   34
 STRESS PERIOD=  3 TIMESTEP=172 LAYER=  1 ZONE=  2 ACTIVE CELLS= 1467 NUMBER OF EQUATIONS=    1467
 SOLVING FOR ZETA FOR LAYER     2 ZONE     2

     635 UPPER PART EQS.       634 LOWER PART EQS.    BAND WIDTH + 1 =   32
 STRESS PERIOD=  3 TIMESTEP=172 LAYER=  2 ZONE=  2 ACTIVE CELLS= 1269 NUMBER OF EQUATIONS=    1269
 UBUDSV SAVING "      ZETASRF  1" ON UNIT 55 AT TIME STEP172, STRESS PERIOD    3

 HEAD WILL BE SAVED ON UNIT   51 AT END OF TIME STEP  172, STRESS PERIOD    3
 
 SOLVING FOR HEAD 

 OUTPUT CONTROL FOR STRESS PERIOD    3   TIME STEP  173
    SAVE HEAD FOR ALL LAYERS
 SOLVING FOR ZETA FOR LAYER     1 ZONE     2

     727 UPPER PART EQS.       738 LOWER PART EQS.    BAND WIDTH + 1 =   32
 STRESS PERIOD=  3 TIMESTEP=173 LAYER=  1 ZONE=  2 ACTIVE CELLS= 1465 NUMBER OF EQUATIONS=    1465
 SOLVING FOR ZETA FOR LAYER     2 ZONE     2

     635 UPPER PART EQS.       634 LOWER PART EQS.    BAND WIDTH + 1 =   32
 STRESS PERIOD=  3 TIMESTEP=173 LAYER=  2 ZONE=  2 ACTIVE CELLS= 1269 NUMBER OF EQUATIONS=    1269
 UBUDSV SAVING "      ZETASRF  1" ON UNIT 55 AT TIME STEP173, STRESS PERIOD    3

 HEAD WILL BE SAVED ON UNIT   51 AT END OF TIME STEP  173, STRESS PERIOD    3
 
 SOLVING FOR HEAD 

 OUTPUT CONTROL FOR STRESS PERIOD    3   TIME STEP  174
    SAVE HEAD FOR ALL LAYERS
 SOLVING FOR ZETA FOR LAYER     1 ZONE     2

     728 UPPER PART EQS.       744 LOWER PART EQS.    BAND WIDTH + 1 =   37
 STRESS PERIOD=  3 TIMESTEP=174 LAYER=  1 ZONE=  2 ACTIVE CELLS= 1472 NUMBER OF EQUATIONS=    1472
 SOLVING FOR ZETA FOR LAYER     2 ZONE     2

     635 UPPER PART EQS.       634 LOWER PART EQS.    BAND WIDTH + 1 =   32
 STRESS PERIOD=  3 TIMESTEP=174 LAYER=  2 ZONE=  2 ACTIVE CELLS= 1269 NUMBER OF EQUATIONS=    1269
 UBUDSV SAVING "      ZETASRF  1" ON UNIT 55 AT TIME STEP174, STRESS PERIOD    3

 HEAD WILL BE SAVED ON UNIT   51 AT END OF TIME STEP  174, STRESS PERIOD    3
 
 SOLVING FOR HEAD 

 OUTPUT CONTROL FOR STRESS PERIOD    3   TIME STEP  175
    SAVE HEAD FOR ALL LAYERS
 SOLVING FOR ZETA FOR LAYER     1 ZONE     2

     731 UPPER PART EQS.       740 LOWER PART EQS.    BAND WIDTH + 1 =   31
 STRESS PERIOD=  3 TIMESTEP=175 LAYER=  1 ZONE=  2 ACTIVE CELLS= 1471 NUMBER OF EQUATIONS=    1471
 SOLVING FOR ZETA FOR LAYER     2 ZONE     2

     635 UPPER PART EQS.       634 LOWER PART EQS.    BAND WIDTH + 1 =   32
 STRESS PERIOD=  3 TIMESTEP=175 LAYER=  2 ZONE=  2 ACTIVE CELLS= 1269 NUMBER OF EQUATIONS=    1269
 UBUDSV SAVING "      ZETASRF  1" ON UNIT 55 AT TIME STEP175, STRESS PERIOD    3

 HEAD WILL BE SAVED ON UNIT   51 AT END OF TIME STEP  175, STRESS PERIOD    3
 
 SOLVING FOR HEAD 

 OUTPUT CONTROL FOR STRESS PERIOD    3   TIME STEP  176
    SAVE HEAD FOR ALL LAYERS
 SOLVING FOR ZETA FOR LAYER     1 ZONE     2

     730 UPPER PART EQS.       738 LOWER PART EQS.    BAND WIDTH + 1 =   30
 STRESS PERIOD=  3 TIMESTEP=176 LAYER=  1 ZONE=  2 ACTIVE CELLS= 1468 NUMBER OF EQUATIONS=    1468
 SOLVING FOR ZETA FOR LAYER     2 ZONE     2

     635 UPPER PART EQS.       634 LOWER PART EQS.    BAND WIDTH + 1 =   32
 STRESS PERIOD=  3 TIMESTEP=176 LAYER=  2 ZONE=  2 ACTIVE CELLS= 1269 NUMBER OF EQUATIONS=    1269
 UBUDSV SAVING "      ZETASRF  1" ON UNIT 55 AT TIME STEP176, STRESS PERIOD    3

 HEAD WILL BE SAVED ON UNIT   51 AT END OF TIME STEP  176, STRESS PERIOD    3
 
 SOLVING FOR HEAD 

 OUTPUT CONTROL FOR STRESS PERIOD    3   TIME STEP  177
    SAVE HEAD FOR ALL LAYERS
 SOLVING FOR ZETA FOR LAYER     1 ZONE     2

     732 UPPER PART EQS.       746 LOWER PART EQS.    BAND WIDTH + 1 =   35
 STRESS PERIOD=  3 TIMESTEP=177 LAYER=  1 ZONE=  2 ACTIVE CELLS= 1478 NUMBER OF EQUATIONS=    1478
 SOLVING FOR ZETA FOR LAYER     2 ZONE     2

     635 UPPER PART EQS.       634 LOWER PART EQS.    BAND WIDTH + 1 =   32
 STRESS PERIOD=  3 TIMESTEP=177 LAYER=  2 ZONE=  2 ACTIVE CELLS= 1269 NUMBER OF EQUATIONS=    1269
 UBUDSV SAVING "      ZETASRF  1" ON UNIT 55 AT TIME STEP177, STRESS PERIOD    3

 HEAD WILL BE SAVED ON UNIT   51 AT END OF TIME STEP  177, STRESS PERIOD    3
 
 SOLVING FOR HEAD 

 OUTPUT CONTROL FOR STRESS PERIOD    3   TIME STEP  178
    SAVE HEAD FOR ALL LAYERS
 SOLVING FOR ZETA FOR LAYER     1 ZONE     2

     726 UPPER PART EQS.       736 LOWER PART EQS.    BAND WIDTH + 1 =   31
 STRESS PERIOD=  3 TIMESTEP=178 LAYER=  1 ZONE=  2 ACTIVE CELLS= 1462 NUMBER OF EQUATIONS=    1462
 SOLVING FOR ZETA FOR LAYER     2 ZONE     2

     635 UPPER PART EQS.       634 LOWER PART EQS.    BAND WIDTH + 1 =   32
 STRESS PERIOD=  3 TIMESTEP=178 LAYER=  2 ZONE=  2 ACTIVE CELLS= 1269 NUMBER OF EQUATIONS=    1269
 UBUDSV SAVING "      ZETASRF  1" ON UNIT 55 AT TIME STEP178, STRESS PERIOD    3

 HEAD WILL BE SAVED ON UNIT   51 AT END OF TIME STEP  178, STRESS PERIOD    3
 
 SOLVING FOR HEAD 

 OUTPUT CONTROL FOR STRESS PERIOD    3   TIME STEP  179
    SAVE HEAD FOR ALL LAYERS
 SOLVING FOR ZETA FOR LAYER     1 ZONE     2

     727 UPPER PART EQS.       739 LOWER PART EQS.    BAND WIDTH + 1 =   34
 STRESS PERIOD=  3 TIMESTEP=179 LAYER=  1 ZONE=  2 ACTIVE CELLS= 1466 NUMBER OF EQUATIONS=    1466
 SOLVING FOR ZETA FOR LAYER     2 ZONE     2

     635 UPPER PART EQS.       634 LOWER PART EQS.    BAND WIDTH + 1 =   32
 STRESS PERIOD=  3 TIMESTEP=179 LAYER=  2 ZONE=  2 ACTIVE CELLS= 1269 NUMBER OF EQUATIONS=    1269
 UBUDSV SAVING "      ZETASRF  1" ON UNIT 55 AT TIME STEP179, STRESS PERIOD    3

 HEAD WILL BE SAVED ON UNIT   51 AT END OF TIME STEP  179, STRESS PERIOD    3
 
 SOLVING FOR HEAD 

 OUTPUT CONTROL FOR STRESS PERIOD    3   TIME STEP  180
    PRINT BUDGET
    SAVE HEAD FOR ALL LAYERS
 SOLVING FOR ZETA FOR LAYER     1 ZONE     2

     730 UPPER PART EQS.       743 LOWER PART EQS.    BAND WIDTH + 1 =   34
 STRESS PERIOD=  3 TIMESTEP=180 LAYER=  1 ZONE=  2 ACTIVE CELLS= 1473 NUMBER OF EQUATIONS=    1473
 SOLVING FOR ZETA FOR LAYER     2 ZONE     2

     635 UPPER PART EQS.       634 LOWER PART EQS.    BAND WIDTH + 1 =   32
 STRESS PERIOD=  3 TIMESTEP=180 LAYER=  2 ZONE=  2 ACTIVE CELLS= 1269 NUMBER OF EQUATIONS=    1269
 UBUDSV SAVING "      ZETASRF  1" ON UNIT 55 AT TIME STEP180, STRESS PERIOD    3


                      VOLUMETRIC SWI ZONE BUDGET FOR ENTIRE MODEL
                     AT END OF TIME STEP  180 IN STRESS PERIOD   3
                                      ZONE     1
  -----------------------------------------------------------------------------------

        CUMULATIVE VOLUMES      L**3       RATES FOR THIS TIME STEP      L**3/T
        ------------------                 ------------------------

              IN:                                      IN:
              ---                                      ---
             BOUNDARIES =   141107232.0000            BOUNDARIES =        1680.0000
          CONSTANT HEAD =           0.0000         CONSTANT HEAD =           0.0000
            ZONE CHANGE =     1620351.8750           ZONE CHANGE =          73.4908
       ZONE CHG TIP/TOE =      436774.5625      ZONE CHG TIP/TOE =           2.7158
            ZONE MIXING =           0.0000           ZONE MIXING =           0.0000

               TOTAL IN =   143164352.0000              TOTAL IN =        1756.2067

             OUT:                                     OUT:
             ----                                     ----
             BOUNDARIES =   124534232.0000            BOUNDARIES =        1749.9393
          CONSTANT HEAD =           0.0000         CONSTANT HEAD =           0.0000
            ZONE CHANGE =    18921646.0000           ZONE CHANGE =           3.5374
       ZONE CHG TIP/TOE =      471987.4688      ZONE CHG TIP/TOE =           2.6938
            ZONE MIXING =           0.0000           ZONE MIXING =           0.0000

              TOTAL OUT =   143927872.0000             TOTAL OUT =        1756.1705

               IN - OUT =     -763520.0000              IN - OUT =       3.6133E-02

    PERCENT DISCREPANCY =          -0.53     PERCENT DISCREPANCY =           0.00



                      VOLUMETRIC SWI ZONE BUDGET FOR ENTIRE MODEL
                     AT END OF TIME STEP  180 IN STRESS PERIOD   3
                                      ZONE     2
  -----------------------------------------------------------------------------------

        CUMULATIVE VOLUMES      L**3       RATES FOR THIS TIME STEP      L**3/T
        ------------------                 ------------------------

              IN:                                      IN:
              ---                                      ---
             BOUNDARIES =     1225673.1250            BOUNDARIES =          94.9393
          CONSTANT HEAD =           0.0000         CONSTANT HEAD =           0.0000
            ZONE CHANGE =    18878440.0000           ZONE CHANGE =           3.3454
       ZONE CHG TIP/TOE =     1209740.3750      ZONE CHG TIP/TOE =           2.6938
            ZONE MIXING =           0.0000           ZONE MIXING =           0.0000

               TOTAL IN =    21313854.0000              TOTAL IN =         100.9786

             OUT:                                     OUT:
             ----                                     ----
             BOUNDARIES =    17800378.0000            BOUNDARIES =          25.0000
          CONSTANT HEAD =           0.0000         CONSTANT HEAD =           0.0000
            ZONE CHANGE =     2358105.2500           ZONE CHANGE =          73.4908
       ZONE CHG TIP/TOE =      393589.5625      ZONE CHG TIP/TOE =           2.5239
            ZONE MIXING =           0.0000           ZONE MIXING =           0.0000

              TOTAL OUT =    20552072.0000             TOTAL OUT =         101.0147

               IN - OUT =      761782.0000              IN - OUT =      -3.6140E-02

    PERCENT DISCREPANCY =           3.64     PERCENT DISCREPANCY =          -0.04


 HEAD WILL BE SAVED ON UNIT   51 AT END OF TIME STEP  180, STRESS PERIOD    3
1
  VOLUMETRIC BUDGET FOR ENTIRE MODEL AT END OF TIME STEP  180, STRESS PERIOD   3
  ------------------------------------------------------------------------------

     CUMULATIVE VOLUMES      L**3       RATES FOR THIS TIME STEP      L**3/T
     ------------------                 ------------------------

           IN:                                      IN:
           ---                                      ---
             STORAGE =           0.0000               STORAGE =           0.0000
       CONSTANT HEAD =           0.0000         CONSTANT HEAD =           0.0000
               WELLS =   141120128.0000                 WELLS =        1681.0000
     HEAD DEP BOUNDS =     1225673.1250       HEAD DEP BOUNDS =          94.9393
          SWIADDTOCH =           0.0000            SWIADDTOCH =           0.0000

            TOTAL IN =   142345808.0000              TOTAL IN =        1775.9393

          OUT:                                     OUT:
          ----                                     ----
             STORAGE =           0.0000               STORAGE =           0.0000
       CONSTANT HEAD =           0.0000         CONSTANT HEAD =           0.0000
               WELLS =     2901750.0000                 WELLS =         275.0000
     HEAD DEP BOUNDS =   139442944.0000       HEAD DEP BOUNDS =        1500.9393
          SWIADDTOCH =           0.0000            SWIADDTOCH =           0.0000

           TOTAL OUT =   142344688.0000             TOTAL OUT =        1775.9393

            IN - OUT =        1120.0000              IN - OUT =           0.0000

 PERCENT DISCREPANCY =           0.00     PERCENT DISCREPANCY =           0.00






         TIME SUMMARY AT END OF TIME STEP  180 IN STRESS PERIOD    3
                    SECONDS     MINUTES      HOURS       DAYS        YEARS
                    -----------------------------------------------------------
   TIME STEP LENGTH 3.15360E+06  52560.      876.00      36.500     9.99316E-02
 STRESS PERIOD TIME 5.67648E+08 9.46080E+06 1.57680E+05  6570.0      17.988    
         TOTAL TIME 7.25328E+09 1.20888E+08 2.01480E+06  83950.      229.84    
1

 Run end date and time (yyyy/mm/dd hh:mm:ss): 2013/07/31 13:47:51
 Elapsed run time: 47.400 Seconds

