                                  MODFLOW-2005     
      U.S. GEOLOGICAL SURVEY MODULAR FINITE-DIFFERENCE GROUND-WATER FLOW MODEL
                            VERSION 1.11.00 8/8/2013

 LIST FILE: swtex4.lst
                         UNIT   92

 OPENING swtex4.ba6
 FILE TYPE:BAS6   UNIT    4   STATUS:OLD    
 FORMAT:FORMATTED              ACCESS:SEQUENTIAL          

 OPENING swtex4.dis
 FILE TYPE:DIS   UNIT   10   STATUS:OLD    
 FORMAT:FORMATTED              ACCESS:SEQUENTIAL          

 OPENING swtex4.lpf
 FILE TYPE:LPF   UNIT   11   STATUS:OLD    
 FORMAT:FORMATTED              ACCESS:SEQUENTIAL          

 OPENING swtex4.wel
 FILE TYPE:WEL   UNIT   12   STATUS:OLD    
 FORMAT:FORMATTED              ACCESS:SEQUENTIAL          

 OPENING swtex4.sip
 FILE TYPE:SIP   UNIT   19   STATUS:OLD    
 FORMAT:FORMATTED              ACCESS:SEQUENTIAL          

 OPENING swtex4.oc
 FILE TYPE:OC   UNIT   22   STATUS:OLD    
 FORMAT:FORMATTED              ACCESS:SEQUENTIAL          

 OPENING swtex4.swt
 FILE TYPE:SWT   UNIT   24   STATUS:OLD    
 FORMAT:FORMATTED              ACCESS:SEQUENTIAL          

 OPENING swtex4.bud
 FILE TYPE:DATA(BINARY)   UNIT   34   STATUS:UNKNOWN
 FORMAT:BINARY                 ACCESS:SEQUENTIAL          

 OPENING swtex4.hed
 FILE TYPE:DATA(BINARY)   UNIT   35   STATUS:UNKNOWN
 FORMAT:BINARY                 ACCESS:SEQUENTIAL          

 OPENING swtex4.cmp
 FILE TYPE:DATA(BINARY)   UNIT   71   STATUS:UNKNOWN
 FORMAT:BINARY                 ACCESS:SEQUENTIAL          

 OPENING swtex4.srs
 FILE TYPE:DATA(BINARY)   UNIT   72   STATUS:UNKNOWN
 FORMAT:BINARY                 ACCESS:SEQUENTIAL          

 OPENING swtex4.gst
 FILE TYPE:DATA(BINARY)   UNIT   76   STATUS:UNKNOWN
 FORMAT:BINARY                 ACCESS:SEQUENTIAL          

 OPENING swtex4.sb
 FILE TYPE:DATA(BINARY)   UNIT   70   STATUS:UNKNOWN
 FORMAT:BINARY                 ACCESS:SEQUENTIAL          

 BAS -- BASIC PACKAGE, VERSION 7, 5/2/2005 INPUT READ FROM UNIT    4
 
 MODFLOW was compiled using mixed precision
 Precision of REAL variables:           6
 Precision of DOUBLE PRECISION variables:          15

 DISCRETIZATION INPUT DATA READ FROM UNIT   10
    4 LAYERS        20 ROWS        15 COLUMNS
    3 STRESS PERIOD(S) IN SIMULATION
 MODEL TIME UNIT IS DAYS
 MODEL LENGTH UNIT IS METERS
  Confining bed flag for each layer:
   0   0   0   0

                     DELR =   2000.00    

                     DELC =   2000.00    

 TOP ELEVATION OF LAYER 1 =   150.000    

   MODEL LAYER BOTTOM EL. =   50.0000     FOR LAYER   1

   MODEL LAYER BOTTOM EL. = -100.0000     FOR LAYER   2

   MODEL LAYER BOTTOM EL. =  -150.000     FOR LAYER   3

   MODEL LAYER BOTTOM EL. =  -350.000     FOR LAYER   4


 STRESS PERIOD     LENGTH       TIME STEPS     MULTIPLIER FOR DELT    SS FLAG
 ----------------------------------------------------------------------------
        1        1.0000000          1                    1.000         SS
        2         21915.00         60                    1.000         TR
        3         21915.00         60                    1.000         TR

 COMBINED STEADY-STATE AND TRANSIENT SIMULATION



 
 # Test simulation 1A for the SWT Package in MODFLOW-2000                        
 #                                                                               
 THE FREE FORMAT OPTION HAS BEEN SELECTED



                     BOUNDARY ARRAY FOR LAYER   1
 READING ON UNIT    4 WITH FORMAT: (15I3)              

       1  2  3  4  5  6  7  8  9 10 11 12 13 14 15
 .................................................
   1   0  0  0  0  0  1  1  1  1  1  0  0  0  0  0
   2   0  0  0  0  1  1  1  1  1  1  1  1  0  0  0
   3   0  0  0  1  1  1  1  1  1  1  1  1  0  0  0
   4   0  0  0  1  1  1  1  1  1  1  1  1  0  0  0
   5   0  0  1  1  1  1  1  1  1  1  1  1  1  0  0
   6   0  0  1  1  1  1  1  1  1  1  1  1  1  1  0
   7   0  1  1  1  1  1  1  1  1  1  1  1  1  1  0
   8   0  1  1  1  1  1  1  1  1  1  1  1  1  1  0
   9   1  1  1  1  1  1  1  1  1  1  1  1  1  1  1
  10   1  1  1  1  1  1  1  1  1  1  1  1  1  1  1
  11   1  1  1  1  1  1  1  1  1  1  1  1  1  1  1
  12   0  1  1  1  1  1  1  1  1  1  1  1  1  1  1
  13   0  1  1  1  1  1  1  1  1  1  1  1  1  1  0
  14   0  1  1  1  1  1  1  1  1  1  1  1  1  1  0
  15   0  0  1  1  1  1  1  1  1  1  1  1  1  0  0
  16   0  0  1  1  1  1  1  1  1  1  1  1  1  0  0
  17   0  0  0  1  1  1  1  1  1  1  1  1  1  0  0
  18   0  0  0  1  1  1  1  1  1  1  1  1  0  0  0
  19   0  0  0  0  0  0  1  1  1  1  0  0  0  0  0
  20   0  0  0  0  0  0  0 -1 -1  0  0  0  0  0  0



                     BOUNDARY ARRAY FOR LAYER   2
 READING ON UNIT    4 WITH FORMAT: (15I3)              

       1  2  3  4  5  6  7  8  9 10 11 12 13 14 15
 .................................................
   1   0  0  0  0  0  1  1  1  1  1  0  0  0  0  0
   2   0  0  0  0  1  1  1  1  1  1  1  1  0  0  0
   3   0  0  0  1  1  1  1  1  1  1  1  1  0  0  0
   4   0  0  0  1  1  1  1  1  1  1  1  1  0  0  0
   5   0  0  1  1  1  1  1  1  1  1  1  1  1  0  0
   6   0  0  1  1  1  1  1  1  1  1  1  1  1  1  0
   7   0  1  1  1  1  1  1  1  1  1  1  1  1  1  0
   8   0  1  1  1  1  1  1  1  1  1  1  1  1  1  0
   9   1  1  1  1  1  1  1  1  1  1  1  1  1  1  1
  10   1  1  1  1  1  1  1  1  1  1  1  1  1  1  1
  11   1  1  1  1  1  1  1  1  1  1  1  1  1  1  1
  12   0  1  1  1  1  1  1  1  1  1  1  1  1  1  1
  13   0  1  1  1  1  1  1  1  1  1  1  1  1  1  0
  14   0  1  1  1  1  1  1  1  1  1  1  1  1  1  0
  15   0  0  1  1  1  1  1  1  1  1  1  1  1  0  0
  16   0  0  1  1  1  1  1  1  1  1  1  1  1  0  0
  17   0  0  0  1  1  1  1  1  1  1  1  1  1  0  0
  18   0  0  0  1  1  1  1  1  1  1  1  1  0  0  0
  19   0  0  0  0  0  0  1  1  1  1  0  0  0  0  0
  20   0  0  0  0  0  0  0 -1 -1  0  0  0  0  0  0



                     BOUNDARY ARRAY FOR LAYER   3
 READING ON UNIT    4 WITH FORMAT: (15I3)              

       1  2  3  4  5  6  7  8  9 10 11 12 13 14 15
 .................................................
   1   0  0  0  0  0  1  1  1  1  1  0  0  0  0  0
   2   0  0  0  0  1  1  1  1  1  1  1  1  0  0  0
   3   0  0  0  1  1  1  1  1  1  1  1  1  0  0  0
   4   0  0  0  1  1  1  1  1  1  1  1  1  0  0  0
   5   0  0  1  1  1  1  1  1  1  1  1  1  1  0  0
   6   0  0  1  1  1  1  1  1  1  1  1  1  1  1  0
   7   0  1  1  1  1  1  1  1  1  1  1  1  1  1  0
   8   0  1  1  1  1  1  1  1  1  1  1  1  1  1  0
   9   1  1  1  1  1  1  1  1  1  1  1  1  1  1  1
  10   1  1  1  1  1  1  1  1  1  1  1  1  1  1  1
  11   1  1  1  1  1  1  1  1  1  1  1  1  1  1  1
  12   0  1  1  1  1  1  1  1  1  1  1  1  1  1  1
  13   0  1  1  1  1  1  1  1  1  1  1  1  1  1  0
  14   0  1  1  1  1  1  1  1  1  1  1  1  1  1  0
  15   0  0  1  1  1  1  1  1  1  1  1  1  1  0  0
  16   0  0  1  1  1  1  1  1  1  1  1  1  1  0  0
  17   0  0  0  1  1  1  1  1  1  1  1  1  1  0  0
  18   0  0  0  1  1  1  1  1  1  1  1  1  0  0  0
  19   0  0  0  0  0  0  1  1  1  1  0  0  0  0  0
  20   0  0  0  0  0  0  0 -1 -1  0  0  0  0  0  0



                     BOUNDARY ARRAY FOR LAYER   4
 READING ON UNIT    4 WITH FORMAT: (15I3)              

       1  2  3  4  5  6  7  8  9 10 11 12 13 14 15
 .................................................
   1   0  0  0  0  0  1  1  1  1  1  0  0  0  0  0
   2   0  0  0  0  1  1  1  1  1  1  1  1  0  0  0
   3   0  0  0  1  1  1  1  1  1  1  1  1  0  0  0
   4   0  0  0  1  1  1  1  1  1  1  1  1  0  0  0
   5   0  0  1  1  1  1  1  1  1  1  1  1  1  0  0
   6   0  0  1  1  1  1  1  1  1  1  1  1  1  1  0
   7   0  1  1  1  1  1  1  1  1  1  1  1  1  1  0
   8   0  1  1  1  1  1  1  1  1  1  1  1  1  1  0
   9   1  1  1  1  1  1  1  1  1  1  1  1  1  1  1
  10   1  1  1  1  1  1  1  1  1  1  1  1  1  1  1
  11   1  1  1  1  1  1  1  1  1  1  1  1  1  1  1
  12   0  1  1  1  1  1  1  1  1  1  1  1  1  1  1
  13   0  1  1  1  1  1  1  1  1  1  1  1  1  1  0
  14   0  1  1  1  1  1  1  1  1  1  1  1  1  1  0
  15   0  0  1  1  1  1  1  1  1  1  1  1  1  0  0
  16   0  0  1  1  1  1  1  1  1  1  1  1  1  0  0
  17   0  0  0  1  1  1  1  1  1  1  1  1  1  0  0
  18   0  0  0  1  1  1  1  1  1  1  1  1  0  0  0
  19   0  0  0  0  0  0  1  1  1  1  0  0  0  0  0
  20   0  0  0  0  0  0  0 -1 -1  0  0  0  0  0  0

 AQUIFER HEAD WILL BE SET TO   0.0000     AT ALL NO-FLOW NODES (IBOUND=0).

             INITIAL HEAD =  100.0000     FOR LAYER   1

             INITIAL HEAD =  100.0000     FOR LAYER   2

             INITIAL HEAD =  100.0000     FOR LAYER   3

             INITIAL HEAD =  100.0000     FOR LAYER   4

 OUTPUT CONTROL IS SPECIFIED ONLY AT TIME STEPS FOR WHICH OUTPUT IS DESIRED
 HEAD PRINT FORMAT CODE IS   5    DRAWDOWN PRINT FORMAT CODE IS   5
 HEADS WILL BE SAVED ON UNIT   35    DRAWDOWNS WILL BE SAVED ON UNIT    0

 LPF -- LAYER-PROPERTY FLOW PACKAGE, VERSION 7, 5/2/2005
         INPUT READ FROM UNIT   11
 CELL-BY-CELL FLOWS WILL BE SAVED ON UNIT   34
 HEAD AT CELLS THAT CONVERT TO DRY=  1.00000E+30
 No named parameters

   LAYER FLAGS:
 LAYER       LAYTYP        LAYAVG         CHANI        LAYVKA        LAYWET
 ---------------------------------------------------------------------------
    1             1             0     1.000E+00             0             0
    2             1             0     1.000E+00             0             0
    3             1             0     1.000E+00             0             0
    4             1             0     1.000E+00             0             0

   INTERPRETATION OF LAYER FLAGS:
                        INTERBLOCK     HORIZONTAL    DATA IN
         LAYER TYPE   TRANSMISSIVITY   ANISOTROPY   ARRAY VKA   WETTABILITY
 LAYER      (LAYTYP)      (LAYAVG)       (CHANI)      (LAYVKA)      (LAYWET)
 ---------------------------------------------------------------------------
    1   CONVERTIBLE      HARMONIC     1.000E+00    VERTICAL K  NON-WETTABLE
    2   CONVERTIBLE      HARMONIC     1.000E+00    VERTICAL K  NON-WETTABLE
    3   CONVERTIBLE      HARMONIC     1.000E+00    VERTICAL K  NON-WETTABLE
    4   CONVERTIBLE      HARMONIC     1.000E+00    VERTICAL K  NON-WETTABLE

 WETTING CAPABILITY IS NOT ACTIVE IN ANY LAYER

    HYD. COND. ALONG ROWS =   4.00000     FOR LAYER   1

      VERTICAL HYD. COND. =  0.400000     FOR LAYER   1

         SPECIFIC STORAGE =  1.400000E-06 FOR LAYER   1

           SPECIFIC YIELD =  0.300000     FOR LAYER   1

    HYD. COND. ALONG ROWS =   4.00000     FOR LAYER   2

      VERTICAL HYD. COND. =  0.400000     FOR LAYER   2

         SPECIFIC STORAGE =  1.400000E-06 FOR LAYER   2

           SPECIFIC YIELD =  0.300000     FOR LAYER   2

    HYD. COND. ALONG ROWS =  1.000000E-02 FOR LAYER   3

      VERTICAL HYD. COND. =  1.000000E-02 FOR LAYER   3

         SPECIFIC STORAGE =  1.400000E-06 FOR LAYER   3

           SPECIFIC YIELD =  0.300000     FOR LAYER   3

    HYD. COND. ALONG ROWS =   4.00000     FOR LAYER   4

      VERTICAL HYD. COND. =  0.400000     FOR LAYER   4

         SPECIFIC STORAGE =  1.400000E-06 FOR LAYER   4

           SPECIFIC YIELD =  0.300000     FOR LAYER   4

 WEL -- WELL PACKAGE, VERSION 7, 5/2/2005 INPUT READ FROM UNIT   12
 No named parameters
 MAXIMUM OF     20 ACTIVE WELLS AT ONE TIME
 CELL-BY-CELL FLOWS WILL BE SAVED ON UNIT   34
 AUXILIARY WELL VARIABLE: IFACE           


     0 Well parameters

 SIP -- STRONGLY-IMPLICIT PROCEDURE SOLUTION PACKAGE
                    VERSION 7, 5/2/2005 INPUT READ FROM UNIT   19
 MAXIMUM OF 400 ITERATIONS ALLOWED FOR CLOSURE
  5 ITERATION PARAMETERS

          SOLUTION BY THE STRONGLY IMPLICIT PROCEDURE
          -------------------------------------------
 MAXIMUM ITERATIONS ALLOWED FOR CLOSURE =      400
                 ACCELERATION PARAMETER =    1.00000    
      HEAD CHANGE CRITERION FOR CLOSURE =    0.10000E-03
      SIP HEAD CHANGE PRINTOUT INTERVAL =        1

     CALCULATE ITERATION PARAMETERS FROM MODEL CALCULATED WSEED
SWT -- SUBSIDENCE FOR WATER-TABLE PACKAGE, VERSION 1, 05/26/06 INPUT READ FROM UNIT 24
    2 OUTPUT CONTROL RECORDS FOR SUB-WT PACKAGE WILL BE READ.

      NUMBER OF SYSTEMS OF INTERBEDS FOR WT SUBSIDENCE:  4
 THICKNESS OF INTERBEDS FOR SUB-WT PACKAGE WILL BE TREATED AS A FUNCTION OF SATURATED THICKNESS.
 VOID RATIO FOR SUB-WT PACKAGE WILL BE TREATED AS A VARIABLE.
 ARRAYS OF OFFSET VALUES WILL BE READ AND ADDED TO INITIAL
 EFFECTIVE STRESS TO GET INITIAL PRECONSOLIDATION STRESS.
 RECOMPRESSION AND COMPRESSION INDICES WILL BE READ
 DIRECTLY INTO ARRAYS.

 MODEL LAYER ASSIGNMENTS FOR EACH OF  4 SUB-WT SYSTEMS OF INTERBEDS:
    1   2   3   4

         GEOSTATIC STRESS =   0.00000     FOR LAYER   1

   MOIST SPECIFIC GRAVITY =   1.70000     FOR LAYER   1

    SAT. SPECIFIC GRAVITY =   2.00000     FOR LAYER   1

  SILT AND CLAY THICKNESS =   45.0000     FOR LAYER   1

      RECOMPRESSION INDEX =  1.000000E-02 FOR LAYER   1

        COMPRESSION INDEX =  0.250000     FOR LAYER   1

               VOID RATIO =  0.820000     FOR LAYER   1

      STARTING COMPACTION =   0.00000     FOR LAYER   1

  SILT AND CLAY THICKNESS =   70.0000     FOR LAYER   2

      RECOMPRESSION INDEX =  1.000000E-02 FOR LAYER   2

        COMPRESSION INDEX =  0.250000     FOR LAYER   2

               VOID RATIO =  0.820000     FOR LAYER   2

      STARTING COMPACTION =   0.00000     FOR LAYER   2

  SILT AND CLAY THICKNESS =   50.0000     FOR LAYER   3

      RECOMPRESSION INDEX =  1.000000E-02 FOR LAYER   3

        COMPRESSION INDEX =  0.250000     FOR LAYER   3

               VOID RATIO =  0.820000     FOR LAYER   3

      STARTING COMPACTION =   0.00000     FOR LAYER   3

  SILT AND CLAY THICKNESS =   90.0000     FOR LAYER   4

      RECOMPRESSION INDEX =  1.000000E-02 FOR LAYER   4

        COMPRESSION INDEX =  0.250000     FOR LAYER   4

               VOID RATIO =  0.820000     FOR LAYER   4

      STARTING COMPACTION =   0.00000     FOR LAYER   4

      PRECONSOL.   STRESS =   15.0000     FOR LAYER   1

      PRECONSOL.   STRESS =   15.0000     FOR LAYER   2

      PRECONSOL.   STRESS =   15.0000     FOR LAYER   3

      PRECONSOL.   STRESS =   15.0000     FOR LAYER   4
 Calculated arrays for SUBWT will be printed after initial steady-state stress period.

             SUBSIDENCE PRINT FORMAT IS NUMBER  10
                 UNIT FOR SAVING SUBSIDENCE IS  70
    COMPACTION BY LAYER PRINT FORMAT IS NUMBER  11
        UNIT FOR SAVING COMPACTION BY LAYER IS  71
   COMPACTION BY SYSTEM PRINT FORMAT IS NUMBER  11
       UNIT FOR SAVING COMPACTION BY SYSTEM IS  71
  VERTICAL DISPLACEMENT PRINT FORMAT IS NUMBER  11
      UNIT FOR SAVING VERTICAL DISPLACEMENT IS  71
PRECONSOLIDATION STRESS PRINT FORMAT IS NUMBER   3
    UNIT FOR SAVING PRECONSOLIDATION STRESS IS  72
CHANGE IN PRECON STRESS PRINT FORMAT IS NUMBER   9
 UNIT FOR SAVING CHANGE IN PRECONSOL STRESS IS  74
       GEOSTATIC STRESS PRINT FORMAT IS NUMBER   3
           UNIT FOR SAVING GEOSTATIC STRESS IS  76
CHNGE IN GEOSTATIC STRS PRINT FORMAT IS NUMBER   4
 UNIT FOR SAVING CHANGE IN GEOSTATIC STRESS IS  76
       EFFECTIVE STRESS PRINT FORMAT IS NUMBER   3
           UNIT FOR SAVING EFFECTIVE STRESS IS  72
  CHANGE IN EFF. STRESS PRINT FORMAT IS NUMBER   9
 UNIT FOR SAVING CHANGE IN EFFECTIVE STRESS IS  78
             VOID RATIO PRINT FORMAT IS NUMBER   3
                 UNIT FOR SAVING VOID RATIO IS  79
              THICKNESS PRINT FORMAT IS NUMBER   3
                  UNIT FOR SAVING THICKNESS IS  80
       CENTER ELEVATION PRINT FORMAT IS NUMBER   3
           UNIT FOR SAVING CENTER ELEVATION IS  81
1
                            STRESS PERIOD NO.    1, LENGTH =  1.0000000    
                            -----------------------------------------------

                              NUMBER OF TIME STEPS =     1

                               MULTIPLIER FOR DELT =     1.000

                            INITIAL TIME STEP SIZE =  1.0000000    

 WELL NO.  LAYER   ROW   COL   STRESS RATE         IFACE           
 ------------------------------------------------------------------
      1      1      1      8       2200.           6.000    
      2      1      2      5       2200.           6.000    
      3      1      2      8       2200.           6.000    
      4      1      2     12       2200.           6.000    
      5      1      3      4       2200.           6.000    
      6      1      4     12       2200.           6.000    
      7      1      5      3       2200.           6.000    
      8      1      5     13       2200.           6.000    
      9      1      6     14       2200.           6.000    
     10      1      7      2       2200.           6.000    
     11      1     14      2       2200.           6.000    
     12      1     14     14       2200.           6.000    
     13      1     16      3       2200.           6.000    
     14      1     16     13       2200.           6.000    
     15      1     17     13       2200.           6.000    
     16      1     18      4       2200.           6.000    
     17      1     18     12       2200.           6.000    
     18      1     19      7       2200.           6.000    

     18 WELLS
 
 SOLVING FOR HEAD 

 AVERAGE SEED = 0.00095402
 MINIMUM SEED = 0.00000414

     5 ITERATION PARAMETERS CALCULATED FROM AVERAGE SEED:

  0.000000E+00 0.824252E+00 0.969113E+00 0.994572E+00 0.999046E+00

   362 ITERATIONS FOR TIME STEP   1 IN STRESS PERIOD    1

 MAXIMUM HEAD CHANGE FOR EACH ITERATION:

    HEAD CHANGE   HEAD CHANGE   HEAD CHANGE   HEAD CHANGE   HEAD CHANGE
  LAYER,ROW,COL LAYER,ROW,COL LAYER,ROW,COL LAYER,ROW,COL LAYER,ROW,COL
 ----------------------------------------------------------------------
      1.493        0.7118         1.270         1.455         4.310    
  (  1, 17, 13) (  3, 17, 12) (  1,  1,  6) (  1,  4,  5) (  3,  1, 10)
     0.3897        0.4210        0.6009         1.411         2.746    
  (  4, 12, 15) (  3, 12, 14) (  1, 14, 14) (  4,  1, 10) (  1, 16,  3)
     0.6918        0.2985        0.8152        0.9863         3.352    
  (  4,  5, 13) (  1, 10, 15) (  4,  6, 14) (  1, 13, 14) (  4,  1, 10)
     0.3961        0.3961        0.5398         1.124         2.227    
  (  4, 12, 15) (  3, 12, 14) (  1, 12, 15) (  4,  5, 13) (  1, 16,  3)
     0.5584        0.2554        0.6486        0.8038         2.632    
  (  4,  5, 13) (  1, 10, 15) (  4,  6, 14) (  1, 12, 15) (  4,  1, 10)
     0.3116        0.3082        0.4326        0.8843         1.783    
  (  4, 12, 15) (  3, 12, 14) (  1, 12, 15) (  4,  5, 13) (  1, 16,  3)
     0.4449        0.2060        0.5104        0.6426         2.076    
  (  4,  5, 13) (  1, 10, 15) (  4,  6, 14) (  1, 12, 15) (  4,  1, 10)
     0.2451        0.2404        0.3447        0.6960         1.423    
  (  4, 12, 15) (  3, 12, 14) (  1, 12, 15) (  4,  5, 13) (  1, 16,  3)
     0.3536        0.1653        0.4022        0.5123         1.640    
  (  4,  5, 13) (  1, 10, 15) (  4,  6, 14) (  1, 12, 15) (  4,  1, 10)
     0.1931        0.1883        0.2743        0.5485         1.133    
  (  4, 12, 15) (  3, 12, 14) (  1, 12, 15) (  4,  5, 13) (  1, 16,  3)
     0.2806        0.1321        0.3172        0.4076         1.295    
  (  4,  5, 13) (  1, 10, 15) (  4,  6, 14) (  1, 12, 15) (  4,  1, 10)
     0.1523        0.1478        0.2179        0.4326        0.9002    
  (  4, 12, 15) (  3, 12, 14) (  1, 12, 15) (  4,  5, 13) (  1, 16,  3)
     0.2224        0.1053        0.2503        0.3238         1.023    
  (  4,  5, 13) (  1, 10, 15) (  4,  6, 14) (  1, 13, 14) (  4,  1, 10)
     0.1202        0.1162        0.1729        0.3413        0.7145    
  (  4, 12, 15) (  3, 12, 14) (  1, 12, 15) (  4,  5, 13) (  1, 16,  3)
     0.1762        0.8381E-01    0.1976        0.2570        0.8082    
  (  4,  5, 13) (  1, 10, 15) (  4,  6, 14) (  1, 13, 14) (  4,  1, 10)
     0.9486E-01    0.9144E-01    0.1371        0.2694        0.5665    
  (  4, 12, 15) (  3, 12, 14) (  1, 12, 15) (  4,  5, 13) (  1, 16,  3)
     0.1395        0.6658E-01    0.1560        0.2037        0.6385    
  (  4,  5, 13) (  1, 10, 15) (  4,  6, 14) (  1, 13, 14) (  4,  1, 10)
     0.7490E-01    0.7203E-01    0.1086        0.2127        0.4487    
  (  4, 12, 15) (  3, 12, 14) (  1, 12, 15) (  4,  5, 13) (  1, 16,  3)
     0.1103        0.5282E-01    0.1232        0.1614        0.5044    
  (  4,  5, 13) (  1, 10, 15) (  4,  6, 14) (  1, 13, 14) (  4,  1, 10)
     0.5914E-01    0.5678E-01    0.8595E-01    0.1679        0.3553    
  (  4, 12, 15) (  3, 12, 14) (  1, 12, 15) (  4,  5, 13) (  1, 16,  3)
     0.8725E-01    0.4187E-01    0.9731E-01    0.1278        0.3985    
  (  4,  5, 13) (  1, 10, 15) (  4,  6, 14) (  1, 13, 14) (  4,  1, 10)
     0.4670E-01    0.4478E-01    0.6801E-01    0.1326        0.2811    
  (  4, 12, 15) (  3, 12, 14) (  1, 12, 15) (  4,  5, 13) (  1, 16,  3)
     0.6899E-01    0.3316E-01    0.7685E-01    0.1011        0.3148    
  (  4,  5, 13) (  1, 10, 15) (  4,  6, 14) (  1, 13, 14) (  4,  1, 10)
     0.3688E-01    0.3532E-01    0.5380E-01    0.1047        0.2224    
  (  4, 12, 15) (  3, 12, 14) (  1, 12, 15) (  4,  5, 13) (  1, 16,  3)
     0.5453E-01    0.2625E-01    0.6070E-01    0.7997E-01    0.2487    
  (  4,  5, 13) (  1, 10, 15) (  4,  6, 14) (  1, 13, 14) (  4,  1, 10)
     0.2913E-01    0.2787E-01    0.4254E-01    0.8269E-01    0.1758    
  (  4, 12, 15) (  3, 12, 14) (  1, 12, 15) (  4,  5, 13) (  1, 16,  3)
     0.4310E-01    0.2077E-01    0.4794E-01    0.6324E-01    0.1964    
  (  4,  5, 13) (  1, 10, 15) (  4,  6, 14) (  1, 13, 14) (  4,  1, 10)
     0.2301E-01    0.2200E-01    0.3363E-01    0.6531E-01    0.1390    
  (  4, 12, 15) (  3, 12, 14) (  1, 12, 15) (  4,  5, 13) (  1, 16,  3)
     0.3406E-01    0.1643E-01    0.3786E-01    0.4999E-01    0.1551    
  (  4,  5, 13) (  1, 10, 15) (  4,  6, 14) (  1, 13, 14) (  4,  1, 10)
     0.1817E-01    0.1737E-01    0.2658E-01    0.5158E-01    0.1099    
  (  4, 12, 15) (  3, 12, 14) (  1, 12, 15) (  4,  5, 13) (  1, 16,  3)
     0.2691E-01    0.1299E-01    0.2991E-01    0.3951E-01    0.1226    
  (  4,  5, 13) (  1, 10, 15) (  4,  6, 14) (  1, 13, 14) (  4,  1, 10)
     0.1435E-01    0.1371E-01    0.2101E-01    0.4073E-01    0.8683E-01
  (  4, 12, 15) (  3, 12, 14) (  1, 12, 15) (  4,  5, 13) (  1, 16,  3)
     0.2126E-01    0.1027E-01    0.2362E-01    0.3123E-01    0.9680E-01
  (  4,  5, 13) (  1, 10, 15) (  4,  6, 14) (  1, 13, 14) (  4,  1, 10)
     0.1133E-01    0.1083E-01    0.1660E-01    0.3217E-01    0.6861E-01
  (  4, 12, 15) (  3, 12, 14) (  1, 12, 15) (  4,  5, 13) (  1, 16,  3)
     0.1680E-01    0.8116E-02    0.1866E-01    0.2467E-01    0.7646E-01
  (  4,  5, 13) (  1, 10, 15) (  4,  6, 14) (  1, 13, 14) (  4,  1, 10)
     0.8952E-02    0.8548E-02    0.1312E-01    0.2541E-01    0.5421E-01
  (  4, 12, 15) (  3, 12, 14) (  1, 12, 15) (  4,  5, 13) (  1, 16,  3)
     0.1327E-01    0.6414E-02    0.1473E-01    0.1950E-01    0.6039E-01
  (  4,  5, 13) (  1, 10, 15) (  4,  6, 14) (  1, 13, 14) (  4,  1, 10)
     0.7071E-02    0.6750E-02    0.1036E-01    0.2007E-01    0.4283E-01
  (  4, 12, 15) (  3, 12, 14) (  1, 12, 15) (  4,  5, 13) (  1, 16,  3)
     0.1048E-01    0.5068E-02    0.1164E-01    0.1540E-01    0.4770E-01
  (  4,  5, 13) (  1, 10, 15) (  4,  6, 14) (  1, 13, 14) (  4,  1, 10)
     0.5585E-02    0.5330E-02    0.8186E-02    0.1585E-01    0.3384E-01
  (  4, 12, 15) (  3, 12, 14) (  1, 12, 15) (  4,  5, 13) (  1, 16,  3)
     0.8280E-02    0.4004E-02    0.9192E-02    0.1217E-01    0.3768E-01
  (  4,  5, 13) (  1, 10, 15) (  4,  6, 14) (  1, 13, 14) (  4,  1, 10)
     0.4411E-02    0.4210E-02    0.6467E-02    0.1252E-01    0.2673E-01
  (  4, 12, 15) (  3, 12, 14) (  1, 12, 15) (  4,  5, 13) (  1, 16,  3)
     0.6540E-02    0.3163E-02    0.7260E-02    0.9612E-02    0.2976E-01
  (  4,  5, 13) (  1, 10, 15) (  4,  6, 14) (  1, 13, 14) (  4,  1, 10)
     0.3484E-02    0.3325E-02    0.5108E-02    0.9888E-02    0.2111E-01
  (  4, 12, 15) (  3, 12, 14) (  1, 12, 15) (  4,  5, 13) (  1, 16,  3)
     0.5166E-02    0.2499E-02    0.5734E-02    0.7593E-02    0.2351E-01
  (  4,  5, 13) (  1, 10, 15) (  4,  6, 14) (  1, 13, 14) (  4,  1, 10)
     0.2752E-02    0.2626E-02    0.4035E-02    0.7810E-02    0.1668E-01
  (  4, 12, 15) (  3, 12, 14) (  1, 12, 15) (  4,  5, 13) (  1, 16,  3)
     0.4081E-02    0.1974E-02    0.4529E-02    0.5998E-02    0.1857E-01
  (  4,  5, 13) (  1, 10, 15) (  4,  6, 14) (  1, 13, 14) (  4,  1, 10)
     0.2173E-02    0.2074E-02    0.3187E-02    0.6168E-02    0.1317E-01
  (  4, 12, 15) (  3, 12, 14) (  1, 12, 15) (  4,  5, 13) (  1, 16,  3)
     0.3223E-02    0.1559E-02    0.3577E-02    0.4738E-02    0.1466E-01
  (  4,  5, 13) (  1, 10, 15) (  4,  6, 14) (  1, 13, 14) (  4,  1, 10)
     0.1717E-02    0.1638E-02    0.2518E-02    0.4872E-02    0.1041E-01
  (  4, 12, 15) (  3, 12, 14) (  1, 12, 15) (  4,  5, 13) (  1, 16,  3)
     0.2546E-02    0.1232E-02    0.2825E-02    0.3742E-02    0.1158E-01
  (  4,  5, 13) (  1, 10, 15) (  4,  6, 14) (  1, 13, 14) (  4,  1, 10)
     0.1356E-02    0.1294E-02    0.1989E-02    0.3848E-02    0.8220E-02
  (  4, 12, 15) (  3, 12, 14) (  1, 12, 15) (  4,  5, 13) (  1, 16,  3)
     0.2011E-02    0.9731E-03    0.2232E-02    0.2956E-02    0.9148E-02
  (  4,  5, 13) (  1, 10, 15) (  4,  6, 14) (  1, 13, 14) (  4,  1, 10)
     0.1071E-02    0.1022E-02    0.1571E-02    0.3039E-02    0.6493E-02
  (  4, 12, 15) (  3, 12, 14) (  1, 12, 15) (  4,  5, 13) (  1, 16,  3)
     0.1588E-02    0.7686E-03    0.1763E-02    0.2335E-02    0.7225E-02
  (  4,  5, 13) (  1, 10, 15) (  4,  6, 14) (  1, 13, 14) (  4,  1, 10)
     0.8458E-03    0.8069E-03    0.1241E-02    0.2401E-02    0.5128E-02
  (  4, 12, 15) (  3, 12, 14) (  1, 12, 15) (  4,  5, 13) (  1, 16,  3)
     0.1255E-02    0.6071E-03    0.1392E-02    0.1844E-02    0.5707E-02
  (  4,  5, 13) (  1, 10, 15) (  4,  6, 14) (  1, 13, 14) (  4,  1, 10)
     0.6681E-03    0.6373E-03    0.9799E-03    0.1896E-02    0.4051E-02
  (  4, 12, 15) (  3, 12, 14) (  1, 12, 15) (  4,  5, 13) (  1, 16,  3)
     0.9909E-03    0.4795E-03    0.1100E-02    0.1457E-02    0.4508E-02
  (  4,  5, 13) (  1, 10, 15) (  4,  6, 14) (  1, 13, 14) (  4,  1, 10)
     0.5277E-03    0.5034E-03    0.7741E-03    0.1498E-02    0.3199E-02
  (  4, 12, 15) (  3, 12, 14) (  1, 12, 15) (  4,  5, 13) (  1, 16,  3)
     0.7826E-03    0.3788E-03    0.8685E-03    0.1151E-02    0.3560E-02
  (  4,  5, 13) (  1, 10, 15) (  4,  6, 14) (  1, 13, 14) (  4,  1, 10)
     0.4168E-03    0.3976E-03    0.6114E-03    0.1183E-02    0.2527E-02
  (  4, 12, 15) (  3, 12, 14) (  1, 12, 15) (  4,  5, 13) (  1, 16,  3)
     0.6182E-03    0.2992E-03    0.6860E-03    0.9087E-03    0.2812E-02
  (  4,  5, 13) (  1, 10, 15) (  4,  6, 14) (  1, 13, 14) (  4,  1, 10)
     0.3292E-03    0.3140E-03    0.4829E-03    0.9343E-03    0.1996E-02
  (  4, 12, 15) (  3, 12, 14) (  1, 12, 15) (  4,  5, 13) (  1, 16,  3)
     0.4883E-03    0.2363E-03    0.5418E-03    0.7177E-03    0.2221E-02
  (  4,  5, 13) (  1, 10, 15) (  4,  6, 14) (  1, 13, 14) (  4,  1, 10)
     0.2600E-03    0.2480E-03    0.3814E-03    0.7379E-03    0.1577E-02
  (  4, 12, 15) (  3, 12, 14) (  1, 12, 15) (  4,  5, 13) (  1, 16,  3)
     0.3855E-03    0.1866E-03    0.4279E-03    0.5669E-03    0.1754E-02
  (  4,  5, 13) (  1, 10, 15) (  4,  6, 14) (  1, 13, 14) (  4,  1, 10)
     0.2054E-03    0.1959E-03    0.3013E-03    0.5828E-03    0.1245E-02
  (  4, 12, 15) (  3, 12, 14) (  1, 12, 15) (  4,  5, 13) (  1, 16,  3)
     0.3047E-03    0.1474E-03    0.3380E-03    0.4478E-03    0.1386E-02
  (  4,  5, 13) (  1, 10, 15) (  4,  6, 14) (  1, 13, 14) (  4,  1, 10)
     0.1622E-03    0.1547E-03    0.2379E-03    0.4603E-03    0.9835E-03
  (  4, 12, 15) (  3, 12, 14) (  1, 12, 15) (  4,  5, 13) (  1, 16,  3)
     0.2406E-03    0.1164E-03    0.2670E-03    0.3537E-03    0.1094E-02
  (  4,  5, 13) (  1, 10, 15) (  4,  6, 14) (  1, 13, 14) (  4,  1, 10)
     0.1281E-03    0.1222E-03    0.1879E-03    0.3636E-03    0.7768E-03
  (  4, 12, 15) (  3, 12, 14) (  1, 12, 15) (  4,  5, 13) (  1, 16,  3)
     0.1900E-03    0.9197E-04
  (  4,  5, 13) (  1, 10, 15)


 OUTPUT CONTROL FOR STRESS PERIOD    1   TIME STEP    1
    SAVE BUDGET
    SAVE HEAD FOR ALL LAYERS
    PRINT HEAD FOR ALL LAYERS
 UBUDSV SAVING "   CONSTANT HEAD" ON UNIT 34 AT TIME STEP  1, STRESS PERIOD    1
 UBUDSV SAVING "FLOW RIGHT FACE " ON UNIT 34 AT TIME STEP  1, STRESS PERIOD    1
 UBUDSV SAVING "FLOW FRONT FACE " ON UNIT 34 AT TIME STEP  1, STRESS PERIOD    1
 UBUDSV SAVING "FLOW LOWER FACE " ON UNIT 34 AT TIME STEP  1, STRESS PERIOD    1
 UBUDSV SAVING "           WELLS" ON UNIT 34 AT TIME STEP  1, STRESS PERIOD    1
1
              HEAD IN LAYER   1 AT END OF TIME STEP   1 IN STRESS PERIOD    1
  ---------------------------------------------------------------------------

           1       2       3       4       5       6       7       8       9      10      11      12      13      14      15
 ...........................................................................................................................
   1    0.000   0.000   0.000   0.000   0.000 142.430 142.605 143.298 142.519 142.262   0.000   0.000   0.000   0.000   0.000
   2    0.000   0.000   0.000   0.000 143.136 142.352 142.321 142.891 142.219 142.072 142.280 143.173   0.000   0.000   0.000
   3    0.000   0.000   0.000 142.643 142.082 141.744 141.652 141.713 141.590 141.604 141.821 142.234   0.000   0.000   0.000
   4    0.000   0.000   0.000 141.367 141.164 140.987 140.900 140.887 140.885 140.983 141.280 142.089   0.000   0.000   0.000
   5    0.000   0.000 141.088 140.534 140.314 140.177 140.102 140.080 140.105 140.203 140.412 140.768 141.248   0.000   0.000
   6    0.000   0.000 139.767 139.583 139.434 139.326 139.259 139.237 139.260 139.337 139.474 139.667 139.898 140.298   0.000
   7    0.000 139.362 138.860 138.667 138.538 138.440 138.376 138.350 138.364 138.421 138.513 138.627 138.741 138.841   0.000
   8    0.000 137.968 137.852 137.734 137.622 137.525 137.455 137.421 137.428 137.473 137.544 137.622 137.680 137.695   0.000
   9  136.536 136.889 136.906 136.816 136.696 136.583 136.497 136.452 136.453 136.498 136.571 136.648 136.686 136.604 136.193
  10  136.193 136.178 136.083 135.934 135.767 135.612 135.496 135.434 135.434 135.493 135.596 135.716 135.817 135.850 135.785
  11  135.872 135.555 135.319 135.072 134.823 134.603 134.438 134.351 134.353 134.441 134.601 134.805 135.017 135.199 135.314
  12    0.000 134.859 134.575 134.212 133.852 133.536 133.301 133.177 133.183 133.317 133.562 133.885 134.252 134.622 134.963
  13    0.000 134.486 133.928 133.358 132.836 132.387 132.050 131.871 131.881 132.081 132.444 132.928 133.502 134.108   0.000
  14    0.000 134.882 133.355 132.475 131.751 131.125 130.638 130.371 130.384 130.683 131.211 131.900 132.783 134.409   0.000
  15    0.000   0.000 132.345 131.483 130.579 129.724 129.005 128.586 128.600 129.054 129.827 130.726 131.534   0.000   0.000
  16    0.000   0.000 132.439 130.603 129.382 128.190 127.070 126.364 126.370 127.112 128.342 129.726 131.348   0.000   0.000
  17    0.000   0.000   0.000 129.325 128.199 126.598 124.722 123.425 123.399 124.690 126.758 128.741 130.898   0.000   0.000
  18    0.000   0.000   0.000 129.420 127.569 125.309 121.815 119.209 119.097 121.505 125.352 128.007   0.000   0.000   0.000
  19    0.000   0.000   0.000   0.000   0.000   0.000 118.180 112.473 112.213 116.857   0.000   0.000   0.000   0.000   0.000
  20    0.000   0.000   0.000   0.000   0.000   0.000   0.000 100.000 100.000   0.000   0.000   0.000   0.000   0.000   0.000
1
              HEAD IN LAYER   2 AT END OF TIME STEP   1 IN STRESS PERIOD    1
  ---------------------------------------------------------------------------

           1       2       3       4       5       6       7       8       9      10      11      12      13      14      15
 ...........................................................................................................................
   1    0.000   0.000   0.000   0.000   0.000 142.428 142.599 143.184 142.512 142.260   0.000   0.000   0.000   0.000   0.000
   2    0.000   0.000   0.000   0.000 143.021 142.345 142.315 142.780 142.214 142.070 142.273 143.057   0.000   0.000   0.000
   3    0.000   0.000   0.000 142.528 142.072 141.742 141.650 141.708 141.589 141.603 141.818 142.224   0.000   0.000   0.000
   4    0.000   0.000   0.000 141.360 141.161 140.985 140.900 140.886 140.884 140.981 141.274 141.978   0.000   0.000   0.000
   5    0.000   0.000 140.974 140.528 140.313 140.177 140.102 140.080 140.104 140.202 140.410 140.758 141.132   0.000   0.000
   6    0.000   0.000 139.760 139.581 139.433 139.325 139.259 139.236 139.259 139.336 139.472 139.664 139.888 140.183   0.000
   7    0.000 139.248 138.854 138.666 138.537 138.440 138.376 138.349 138.364 138.420 138.512 138.626 138.738 138.834   0.000
   8    0.000 137.962 137.850 137.734 137.622 137.524 137.455 137.421 137.428 137.472 137.544 137.622 137.679 137.694   0.000
   9  136.536 136.888 136.905 136.816 136.696 136.583 136.497 136.452 136.453 136.498 136.571 136.648 136.686 136.604 136.193
  10  136.193 136.177 136.082 135.934 135.766 135.612 135.496 135.433 135.433 135.492 135.595 135.716 135.817 135.850 135.785
  11  135.872 135.554 135.319 135.071 134.823 134.603 134.438 134.351 134.353 134.441 134.601 134.804 135.017 135.199 135.314
  12    0.000 134.858 134.574 134.212 133.851 133.536 133.301 133.177 133.182 133.317 133.561 133.885 134.252 134.621 134.963
  13    0.000 134.481 133.926 133.357 132.835 132.386 132.049 131.870 131.880 132.081 132.444 132.927 133.501 134.103   0.000
  14    0.000 134.769 133.349 132.474 131.750 131.124 130.638 130.370 130.384 130.682 131.210 131.899 132.777 134.295   0.000
  15    0.000   0.000 132.338 131.480 130.578 129.723 129.004 128.585 128.598 129.053 129.826 130.724 131.528   0.000   0.000
  16    0.000   0.000 132.325 130.597 129.380 128.189 127.068 126.362 126.368 127.110 128.339 129.719 131.233   0.000   0.000
  17    0.000   0.000   0.000 129.319 128.197 126.596 124.718 123.421 123.395 124.687 126.754 128.730 130.778   0.000   0.000
  18    0.000   0.000   0.000 129.306 127.563 125.305 121.806 119.200 119.088 121.499 125.344 127.892   0.000   0.000   0.000
  19    0.000   0.000   0.000   0.000   0.000   0.000 118.062 112.446 112.189 116.851   0.000   0.000   0.000   0.000   0.000
  20    0.000   0.000   0.000   0.000   0.000   0.000   0.000 100.000 100.000   0.000   0.000   0.000   0.000   0.000   0.000
1
              HEAD IN LAYER   3 AT END OF TIME STEP   1 IN STRESS PERIOD    1
  ---------------------------------------------------------------------------

           1       2       3       4       5       6       7       8       9      10      11      12      13      14      15
 ...........................................................................................................................
   1    0.000   0.000   0.000   0.000   0.000 142.368 142.487 142.844 142.408 142.218   0.000   0.000   0.000   0.000   0.000
   2    0.000   0.000   0.000   0.000 142.655 142.239 142.213 142.486 142.125 142.022 142.165 142.688   0.000   0.000   0.000
   3    0.000   0.000   0.000 142.158 141.915 141.682 141.605 141.635 141.551 141.570 141.748 142.054   0.000   0.000   0.000
   4    0.000   0.000   0.000 141.242 141.102 140.958 140.882 140.865 140.868 140.955 141.190 141.663   0.000   0.000   0.000
   5    0.000   0.000 140.620 140.428 140.279 140.163 140.094 140.073 140.096 140.186 140.361 140.610 140.753   0.000   0.000
   6    0.000   0.000 139.650 139.535 139.416 139.318 139.255 139.233 139.255 139.327 139.449 139.600 139.729 139.816   0.000
   7    0.000 138.899 138.758 138.636 138.527 138.435 138.373 138.347 138.362 138.416 138.502 138.601 138.684 138.734   0.000
   8    0.000 137.870 137.812 137.719 137.616 137.522 137.453 137.420 137.426 137.470 137.539 137.612 137.662 137.666   0.000
   9  136.529 136.867 136.892 136.809 136.693 136.581 136.495 136.450 136.452 136.496 136.569 136.644 136.680 136.596 136.190
  10  136.190 136.171 136.077 135.930 135.764 135.611 135.494 135.432 135.432 135.491 135.593 135.714 135.814 135.847 135.783
  11  135.869 135.547 135.314 135.068 134.821 134.601 134.436 134.349 134.351 134.439 134.599 134.801 135.012 135.193 135.311
  12    0.000 134.833 134.561 134.205 133.848 133.533 133.298 133.175 133.180 133.314 133.558 133.878 134.239 134.601 134.956
  13    0.000 134.388 133.887 133.342 132.829 132.383 132.046 131.867 131.877 132.077 132.437 132.912 133.461 134.010   0.000
  14    0.000 134.414 133.251 132.443 131.739 131.118 130.633 130.365 130.378 130.675 131.197 131.866 132.677 133.939   0.000
  15    0.000   0.000 132.226 131.433 130.559 129.713 128.996 128.577 128.590 129.042 129.803 130.671 131.407   0.000   0.000
  16    0.000   0.000 131.961 130.495 129.346 128.172 127.052 126.347 126.352 127.089 128.296 129.595 130.839   0.000   0.000
  17    0.000   0.000   0.000 129.204 128.146 126.565 124.682 123.388 123.364 124.652 126.683 128.536 130.307   0.000   0.000
  18    0.000   0.000   0.000 128.937 127.456 125.248 121.695 119.124 119.030 121.442 125.225 127.495   0.000   0.000   0.000
  19    0.000   0.000   0.000   0.000   0.000   0.000 117.656 112.296 112.099 116.798   0.000   0.000   0.000   0.000   0.000
  20    0.000   0.000   0.000   0.000   0.000   0.000   0.000 100.000 100.000   0.000   0.000   0.000   0.000   0.000   0.000
1
              HEAD IN LAYER   4 AT END OF TIME STEP   1 IN STRESS PERIOD    1
  ---------------------------------------------------------------------------

           1       2       3       4       5       6       7       8       9      10      11      12      13      14      15
 ...........................................................................................................................
   1    0.000   0.000   0.000   0.000   0.000 142.307 142.373 142.497 142.301 142.175   0.000   0.000   0.000   0.000   0.000
   2    0.000   0.000   0.000   0.000 142.281 142.129 142.109 142.187 142.034 141.973 142.054 142.311   0.000   0.000   0.000
   3    0.000   0.000   0.000 141.781 141.754 141.621 141.559 141.560 141.513 141.537 141.676 141.881   0.000   0.000   0.000
   4    0.000   0.000   0.000 141.122 141.040 140.931 140.863 140.844 140.851 140.928 141.104 141.342   0.000   0.000   0.000
   5    0.000   0.000 140.259 140.325 140.244 140.149 140.086 140.065 140.088 140.169 140.311 140.458 140.365   0.000   0.000
   6    0.000   0.000 139.537 139.488 139.398 139.311 139.251 139.230 139.251 139.318 139.425 139.536 139.566 139.440   0.000
   7    0.000 138.542 138.659 138.606 138.516 138.431 138.371 138.345 138.359 138.411 138.491 138.576 138.630 138.632   0.000
   8    0.000 137.777 137.773 137.705 137.610 137.519 137.451 137.418 137.424 137.467 137.534 137.603 137.644 137.639   0.000
   9  136.522 136.845 136.879 136.803 136.690 136.579 136.493 136.449 136.450 136.494 136.566 136.640 136.674 136.589 136.187
  10  136.186 136.164 136.072 135.927 135.762 135.609 135.493 135.430 135.430 135.489 135.592 135.711 135.810 135.843 135.781
  11  135.866 135.540 135.308 135.065 134.819 134.599 134.435 134.347 134.349 134.437 134.596 134.798 135.007 135.187 135.308
  12    0.000 134.809 134.547 134.199 133.844 133.531 133.296 133.172 133.178 133.312 133.554 133.872 134.226 134.579 134.950
  13    0.000 134.293 133.848 133.327 132.822 132.379 132.043 131.864 131.873 132.073 132.430 132.896 133.421 133.916   0.000
  14    0.000 134.052 133.151 132.412 131.727 131.112 130.628 130.361 130.373 130.668 131.184 131.833 132.575 133.576   0.000
  15    0.000   0.000 132.111 131.385 130.540 129.703 128.988 128.569 128.581 129.030 129.781 130.616 131.284   0.000   0.000
  16    0.000   0.000 131.589 130.390 129.310 128.154 127.036 126.331 126.336 127.068 128.252 129.468 130.437   0.000   0.000
  17    0.000   0.000   0.000 129.086 128.093 126.534 124.644 123.354 123.333 124.615 126.610 128.338 129.825   0.000   0.000
  18    0.000   0.000   0.000 128.560 127.347 125.190 121.582 119.047 118.970 121.384 125.102 127.089   0.000   0.000   0.000
  19    0.000   0.000   0.000   0.000   0.000   0.000 117.240 112.143 112.006 116.744   0.000   0.000   0.000   0.000   0.000
  20    0.000   0.000   0.000   0.000   0.000   0.000   0.000 100.000 100.000   0.000   0.000   0.000   0.000   0.000   0.000

 HEAD WILL BE SAVED ON UNIT   35 AT END OF TIME STEP    1, STRESS PERIOD    1
1
  VOLUMETRIC BUDGET FOR ENTIRE MODEL AT END OF TIME STEP    1, STRESS PERIOD   1
  ------------------------------------------------------------------------------

     CUMULATIVE VOLUMES      L**3       RATES FOR THIS TIME STEP      L**3/T
     ------------------                 ------------------------

           IN:                                      IN:
           ---                                      ---
             STORAGE =           0.0000               STORAGE =           0.0000
       CONSTANT HEAD =           0.0000         CONSTANT HEAD =           0.0000
               WELLS =       39600.0000                 WELLS =       39600.0000
    INTERBED STORAGE =           0.0000      INTERBED STORAGE =           0.0000

            TOTAL IN =       39600.0000              TOTAL IN =       39600.0000

          OUT:                                     OUT:
          ----                                     ----
             STORAGE =           0.0000               STORAGE =           0.0000
       CONSTANT HEAD =       39592.0039         CONSTANT HEAD =       39592.0039
               WELLS =           0.0000                 WELLS =           0.0000
    INTERBED STORAGE =           0.0000      INTERBED STORAGE =           0.0000

           TOTAL OUT =       39592.0039             TOTAL OUT =       39592.0039

            IN - OUT =           7.9961              IN - OUT =           7.9961

 PERCENT DISCREPANCY =           0.02     PERCENT DISCREPANCY =           0.02






         TIME SUMMARY AT END OF TIME STEP    1 IN STRESS PERIOD    1
                    SECONDS     MINUTES      HOURS       DAYS        YEARS
                    -----------------------------------------------------------
   TIME STEP LENGTH  86400.      1440.0      24.000     1.00000     2.73785E-03
 STRESS PERIOD TIME  86400.      1440.0      24.000     1.00000     2.73785E-03
         TOTAL TIME  86400.      1440.0      24.000     1.00000     2.73785E-03
1
1
                            STRESS PERIOD NO.    2, LENGTH =   21915.00    
                            -----------------------------------------------

                              NUMBER OF TIME STEPS =    60

                               MULTIPLIER FOR DELT =     1.000

                            INITIAL TIME STEP SIZE =   365.2500    

 The following is a calculated (or recalculated) SUB-WT array after the initial steady-state stress period:
1
  GEOSTATIC STRESS IN LAYER   1 AT END OF TIME STEP   1 IN STRESS PERIOD    1
  ---------------------------------------------------------------------------

           1       2       3       4       5       6       7       8       9      10      11      12      13      14      15
 ...........................................................................................................................
   1    170.0   170.0   170.0   170.0   170.0   197.7   197.8   198.0   197.8   197.7   170.0   170.0   170.0   170.0   170.0
   2    170.0   170.0   170.0   170.0   197.9   197.7   197.7   197.9   197.7   197.6   197.7   198.0   170.0   170.0   170.0
   3    170.0   170.0   170.0   197.8   197.6   197.5   197.5   197.5   197.5   197.5   197.5   197.7   170.0   170.0   170.0
   4    170.0   170.0   170.0   197.4   197.3   197.3   197.3   197.3   197.3   197.3   197.4   197.6   170.0   170.0   170.0
   5    170.0   170.0   197.3   197.2   197.1   197.1   197.0   197.0   197.0   197.1   197.1   197.2   197.4   170.0   170.0
   6    170.0   170.0   196.9   196.9   196.8   196.8   196.8   196.8   196.8   196.8   196.8   196.9   197.0   197.1   170.0
   7    170.0   196.8   196.7   196.6   196.6   196.5   196.5   196.5   196.5   196.5   196.6   196.6   196.6   196.7   170.0
   8    170.0   196.4   196.4   196.3   196.3   196.3   196.2   196.2   196.2   196.2   196.3   196.3   196.3   196.3   170.0
   9    196.0   196.1   196.1   196.0   196.0   196.0   195.9   195.9   195.9   195.9   196.0   196.0   196.0   196.0   195.9
  10    195.9   195.9   195.8   195.8   195.7   195.7   195.6   195.6   195.6   195.6   195.7   195.7   195.7   195.8   195.7
  11    195.8   195.7   195.6   195.5   195.4   195.4   195.3   195.3   195.3   195.3   195.4   195.4   195.5   195.6   195.6
  12    170.0   195.5   195.4   195.3   195.2   195.1   195.0   195.0   195.0   195.0   195.1   195.2   195.3   195.4   195.5
  13    170.0   195.3   195.2   195.0   194.9   194.7   194.6   194.6   194.6   194.6   194.7   194.9   195.1   195.2   170.0
  14    170.0   195.5   195.0   194.7   194.5   194.3   194.2   194.1   194.1   194.2   194.4   194.6   194.8   195.3   170.0
  15    170.0   170.0   194.7   194.4   194.2   193.9   193.7   193.6   193.6   193.7   193.9   194.2   194.5   170.0   170.0
  16    170.0   170.0   194.7   194.2   193.8   193.5   193.1   192.9   192.9   193.1   193.5   193.9   194.4   170.0   170.0
  17    170.0   170.0   170.0   193.8   193.5   193.0   192.4   192.0   192.0   192.4   193.0   193.6   194.3   170.0   170.0
  18    170.0   170.0   170.0   193.8   193.3   192.6   191.5   190.8   190.7   191.5   192.6   193.4   170.0   170.0   170.0
  19    170.0   170.0   170.0   170.0   170.0   170.0   190.5   188.7   188.7   190.1   170.0   170.0   170.0   170.0   170.0
  20    170.0   170.0   170.0   170.0   170.0   170.0   170.0   185.0   185.0   170.0   170.0   170.0   170.0   170.0   170.0

 The following is a calculated (or recalculated) SUB-WT array after the initial steady-state stress period:
1
  GEOSTATIC STRESS IN LAYER   2 AT END OF TIME STEP   1 IN STRESS PERIOD    1
  ---------------------------------------------------------------------------

           1       2       3       4       5       6       7       8       9      10      11      12      13      14      15
 ...........................................................................................................................
   1    425.0   425.0   425.0   425.0   425.0   497.7   497.8   498.0   497.8   497.7   425.0   425.0   425.0   425.0   425.0
   2    425.0   425.0   425.0   425.0   497.9   497.7   497.7   497.9   497.7   497.6   497.7   498.0   425.0   425.0   425.0
   3    425.0   425.0   425.0   497.8   497.6   497.5   497.5   497.5   497.5   497.5   497.5   497.7   425.0   425.0   425.0
   4    425.0   425.0   425.0   497.4   497.3   497.3   497.3   497.3   497.3   497.3   497.4   497.6   425.0   425.0   425.0
   5    425.0   425.0   497.3   497.2   497.1   497.1   497.0   497.0   497.0   497.1   497.1   497.2   497.4   425.0   425.0
   6    425.0   425.0   496.9   496.9   496.8   496.8   496.8   496.8   496.8   496.8   496.8   496.9   497.0   497.1   425.0
   7    425.0   496.8   496.7   496.6   496.6   496.5   496.5   496.5   496.5   496.5   496.6   496.6   496.6   496.7   425.0
   8    425.0   496.4   496.4   496.3   496.3   496.3   496.2   496.2   496.2   496.2   496.3   496.3   496.3   496.3   425.0
   9    496.0   496.1   496.1   496.0   496.0   496.0   495.9   495.9   495.9   495.9   496.0   496.0   496.0   496.0   495.9
  10    495.9   495.9   495.8   495.8   495.7   495.7   495.6   495.6   495.6   495.6   495.7   495.7   495.7   495.8   495.7
  11    495.8   495.7   495.6   495.5   495.4   495.4   495.3   495.3   495.3   495.3   495.4   495.4   495.5   495.6   495.6
  12    425.0   495.5   495.4   495.3   495.2   495.1   495.0   495.0   495.0   495.0   495.1   495.2   495.3   495.4   495.5
  13    425.0   495.3   495.2   495.0   494.9   494.7   494.6   494.6   494.6   494.6   494.7   494.9   495.1   495.2   425.0
  14    425.0   495.5   495.0   494.7   494.5   494.3   494.2   494.1   494.1   494.2   494.4   494.6   494.8   495.3   425.0
  15    425.0   425.0   494.7   494.4   494.2   493.9   493.7   493.6   493.6   493.7   493.9   494.2   494.5   425.0   425.0
  16    425.0   425.0   494.7   494.2   493.8   493.5   493.1   492.9   492.9   493.1   493.5   493.9   494.4   425.0   425.0
  17    425.0   425.0   425.0   493.8   493.5   493.0   492.4   492.0   492.0   492.4   493.0   493.6   494.3   425.0   425.0
  18    425.0   425.0   425.0   493.8   493.3   492.6   491.5   490.8   490.7   491.5   492.6   493.4   425.0   425.0   425.0
  19    425.0   425.0   425.0   425.0   425.0   425.0   490.5   488.7   488.7   490.1   425.0   425.0   425.0   425.0   425.0
  20    425.0   425.0   425.0   425.0   425.0   425.0   425.0   485.0   485.0   425.0   425.0   425.0   425.0   425.0   425.0

 The following is a calculated (or recalculated) SUB-WT array after the initial steady-state stress period:
1
  GEOSTATIC STRESS IN LAYER   3 AT END OF TIME STEP   1 IN STRESS PERIOD    1
  ---------------------------------------------------------------------------

           1       2       3       4       5       6       7       8       9      10      11      12      13      14      15
 ...........................................................................................................................
   1    510.0   510.0   510.0   510.0   510.0   597.7   597.8   598.0   597.8   597.7   510.0   510.0   510.0   510.0   510.0
   2    510.0   510.0   510.0   510.0   597.9   597.7   597.7   597.9   597.7   597.6   597.7   598.0   510.0   510.0   510.0
   3    510.0   510.0   510.0   597.8   597.6   597.5   597.5   597.5   597.5   597.5   597.5   597.7   510.0   510.0   510.0
   4    510.0   510.0   510.0   597.4   597.3   597.3   597.3   597.3   597.3   597.3   597.4   597.6   510.0   510.0   510.0
   5    510.0   510.0   597.3   597.2   597.1   597.1   597.0   597.0   597.0   597.1   597.1   597.2   597.4   510.0   510.0
   6    510.0   510.0   596.9   596.9   596.8   596.8   596.8   596.8   596.8   596.8   596.8   596.9   597.0   597.1   510.0
   7    510.0   596.8   596.7   596.6   596.6   596.5   596.5   596.5   596.5   596.5   596.6   596.6   596.6   596.7   510.0
   8    510.0   596.4   596.4   596.3   596.3   596.3   596.2   596.2   596.2   596.2   596.3   596.3   596.3   596.3   510.0
   9    596.0   596.1   596.1   596.0   596.0   596.0   595.9   595.9   595.9   595.9   596.0   596.0   596.0   596.0   595.9
  10    595.9   595.9   595.8   595.8   595.7   595.7   595.6   595.6   595.6   595.6   595.7   595.7   595.7   595.8   595.7
  11    595.8   595.7   595.6   595.5   595.4   595.4   595.3   595.3   595.3   595.3   595.4   595.4   595.5   595.6   595.6
  12    510.0   595.5   595.4   595.3   595.2   595.1   595.0   595.0   595.0   595.0   595.1   595.2   595.3   595.4   595.5
  13    510.0   595.3   595.2   595.0   594.9   594.7   594.6   594.6   594.6   594.6   594.7   594.9   595.1   595.2   510.0
  14    510.0   595.5   595.0   594.7   594.5   594.3   594.2   594.1   594.1   594.2   594.4   594.6   594.8   595.3   510.0
  15    510.0   510.0   594.7   594.4   594.2   593.9   593.7   593.6   593.6   593.7   593.9   594.2   594.5   510.0   510.0
  16    510.0   510.0   594.7   594.2   593.8   593.5   593.1   592.9   592.9   593.1   593.5   593.9   594.4   510.0   510.0
  17    510.0   510.0   510.0   593.8   593.5   593.0   592.4   592.0   592.0   592.4   593.0   593.6   594.3   510.0   510.0
  18    510.0   510.0   510.0   593.8   593.3   592.6   591.5   590.8   590.7   591.5   592.6   593.4   510.0   510.0   510.0
  19    510.0   510.0   510.0   510.0   510.0   510.0   590.5   588.7   588.7   590.1   510.0   510.0   510.0   510.0   510.0
  20    510.0   510.0   510.0   510.0   510.0   510.0   510.0   585.0   585.0   510.0   510.0   510.0   510.0   510.0   510.0

 The following is a calculated (or recalculated) SUB-WT array after the initial steady-state stress period:
1
  GEOSTATIC STRESS IN LAYER   4 AT END OF TIME STEP   1 IN STRESS PERIOD    1
  ---------------------------------------------------------------------------

           1       2       3       4       5       6       7       8       9      10      11      12      13      14      15
 ...........................................................................................................................
   1    850.0   850.0   850.0   850.0   850.0   997.7   997.8   998.0   997.8   997.7   850.0   850.0   850.0   850.0   850.0
   2    850.0   850.0   850.0   850.0   997.9   997.7   997.7   997.9   997.7   997.6   997.7   998.0   850.0   850.0   850.0
   3    850.0   850.0   850.0   997.8   997.6   997.5   997.5   997.5   997.5   997.5   997.5   997.7   850.0   850.0   850.0
   4    850.0   850.0   850.0   997.4   997.3   997.3   997.3   997.3   997.3   997.3   997.4   997.6   850.0   850.0   850.0
   5    850.0   850.0   997.3   997.2   997.1   997.1   997.0   997.0   997.0   997.1   997.1   997.2   997.4   850.0   850.0
   6    850.0   850.0   996.9   996.9   996.8   996.8   996.8   996.8   996.8   996.8   996.8   996.9   997.0   997.1   850.0
   7    850.0   996.8   996.7   996.6   996.6   996.5   996.5   996.5   996.5   996.5   996.6   996.6   996.6   996.7   850.0
   8    850.0   996.4   996.4   996.3   996.3   996.3   996.2   996.2   996.2   996.2   996.3   996.3   996.3   996.3   850.0
   9    996.0   996.1   996.1   996.0   996.0   996.0   995.9   995.9   995.9   995.9   996.0   996.0   996.0   996.0   995.9
  10    995.9   995.9   995.8   995.8   995.7   995.7   995.6   995.6   995.6   995.6   995.7   995.7   995.7   995.8   995.7
  11    995.8   995.7   995.6   995.5   995.4   995.4   995.3   995.3   995.3   995.3   995.4   995.4   995.5   995.6   995.6
  12    850.0   995.5   995.4   995.3   995.2   995.1   995.0   995.0   995.0   995.0   995.1   995.2   995.3   995.4   995.5
  13    850.0   995.3   995.2   995.0   994.9   994.7   994.6   994.6   994.6   994.6   994.7   994.9   995.1   995.2   850.0
  14    850.0   995.5   995.0   994.7   994.5   994.3   994.2   994.1   994.1   994.2   994.4   994.6   994.8   995.3   850.0
  15    850.0   850.0   994.7   994.4   994.2   993.9   993.7   993.6   993.6   993.7   993.9   994.2   994.5   850.0   850.0
  16    850.0   850.0   994.7   994.2   993.8   993.5   993.1   992.9   992.9   993.1   993.5   993.9   994.4   850.0   850.0
  17    850.0   850.0   850.0   993.8   993.5   993.0   992.4   992.0   992.0   992.4   993.0   993.6   994.3   850.0   850.0
  18    850.0   850.0   850.0   993.8   993.3   992.6   991.5   990.8   990.7   991.5   992.6   993.4   850.0   850.0   850.0
  19    850.0   850.0   850.0   850.0   850.0   850.0   990.5   988.7   988.7   990.1   850.0   850.0   850.0   850.0   850.0
  20    850.0   850.0   850.0   850.0   850.0   850.0   850.0   985.0   985.0   850.0   850.0   850.0   850.0   850.0   850.0

 The following is a calculated (or recalculated) SUB-WT array after the initial steady-state stress period:
1
  EFFECTIVE STRESS IN LAYER   1 AT END OF TIME STEP   1 IN STRESS PERIOD    1
  ---------------------------------------------------------------------------

           1       2       3       4       5       6       7       8       9      10      11      12      13      14      15
 ...........................................................................................................................
   1      0.0     0.0     0.0     0.0     0.0   105.3   105.2   104.7   105.2   105.4     0.0     0.0     0.0     0.0     0.0
   2      0.0     0.0     0.0     0.0   104.8   105.4   105.4   105.0   105.4   105.5   105.4   104.8     0.0     0.0     0.0
   3      0.0     0.0     0.0   105.1   105.5   105.8   105.8   105.8   105.9   105.9   105.7   105.4     0.0     0.0     0.0
   4      0.0     0.0     0.0   106.0   106.2   106.3   106.4   106.4   106.4   106.3   106.1   105.5     0.0     0.0     0.0
   5      0.0     0.0   106.2   106.6   106.8   106.9   106.9   106.9   106.9   106.9   106.7   106.5   106.1     0.0     0.0
   6      0.0     0.0   107.2   107.3   107.4   107.5   107.5   107.5   107.5   107.5   107.4   107.2   107.1   106.8     0.0
   7      0.0   107.4   107.8   107.9   108.0   108.1   108.1   108.2   108.1   108.1   108.0   108.0   107.9   107.8     0.0
   8      0.0   108.4   108.5   108.6   108.7   108.7   108.8   108.8   108.8   108.8   108.7   108.7   108.6   108.6     0.0
   9    109.4   109.2   109.2   109.2   109.3   109.4   109.5   109.5   109.5   109.5   109.4   109.3   109.3   109.4   109.7
  10    109.7   109.7   109.7   109.8   110.0   110.1   110.2   110.2   110.2   110.2   110.1   110.0   109.9   109.9   110.0
  11    109.9   110.1   110.3   110.4   110.6   110.8   110.9   111.0   111.0   110.9   110.8   110.6   110.5   110.4   110.3
  12      0.0   110.6   110.8   111.1   111.3   111.5   111.7   111.8   111.8   111.7   111.5   111.3   111.0   110.8   110.5
  13      0.0   110.9   111.3   111.6   112.0   112.3   112.6   112.7   112.7   112.5   112.3   112.0   111.5   111.1     0.0
  14      0.0   110.6   111.7   112.3   112.8   113.2   113.6   113.7   113.7   113.5   113.2   112.7   112.1   110.9     0.0
  15      0.0     0.0   112.4   113.0   113.6   114.2   114.7   115.0   115.0   114.7   114.1   113.5   112.9     0.0     0.0
  16      0.0     0.0   112.3   113.6   114.4   115.3   116.1   116.5   116.5   116.0   115.2   114.2   113.1     0.0     0.0
  17      0.0     0.0     0.0   114.5   115.3   116.4   117.7   118.6   118.6   117.7   116.3   114.9   113.4     0.0     0.0
  18      0.0     0.0     0.0   114.4   115.7   117.3   119.7   121.6   121.6   119.9   117.3   115.4     0.0     0.0     0.0
  19      0.0     0.0     0.0     0.0     0.0     0.0   122.3   126.3   126.5   123.2     0.0     0.0     0.0     0.0     0.0
  20      0.0     0.0     0.0     0.0     0.0     0.0     0.0   135.0   135.0     0.0     0.0     0.0     0.0     0.0     0.0

 The following is a calculated (or recalculated) SUB-WT array after the initial steady-state stress period:
1
  EFFECTIVE STRESS IN LAYER   2 AT END OF TIME STEP   1 IN STRESS PERIOD    1
  ---------------------------------------------------------------------------

           1       2       3       4       5       6       7       8       9      10      11      12      13      14      15
 ...........................................................................................................................
   1      0.0     0.0     0.0     0.0     0.0   255.3   255.2   254.8   255.2   255.4     0.0     0.0     0.0     0.0     0.0
   2      0.0     0.0     0.0     0.0   254.9   255.4   255.4   255.1   255.5   255.6   255.4   254.9     0.0     0.0     0.0
   3      0.0     0.0     0.0   255.3   255.6   255.8   255.8   255.8   255.9   255.9   255.7   255.4     0.0     0.0     0.0
   4      0.0     0.0     0.0   256.1   256.2   256.3   256.4   256.4   256.4   256.3   256.1   255.6     0.0     0.0     0.0
   5      0.0     0.0   256.4   256.6   256.8   256.9   256.9   256.9   256.9   256.9   256.7   256.5   256.2     0.0     0.0
   6      0.0     0.0   257.2   257.3   257.4   257.5   257.5   257.5   257.5   257.5   257.4   257.2   257.1   256.9     0.0
   7      0.0   257.6   257.8   257.9   258.0   258.1   258.1   258.2   258.1   258.1   258.0   258.0   257.9   257.8     0.0
   8      0.0   258.4   258.5   258.6   258.7   258.7   258.8   258.8   258.8   258.8   258.7   258.7   258.6   258.6     0.0
   9    259.4   259.2   259.2   259.2   259.3   259.4   259.5   259.5   259.5   259.5   259.4   259.3   259.3   259.4   259.7
  10    259.7   259.7   259.7   259.8   260.0   260.1   260.2   260.2   260.2   260.2   260.1   260.0   259.9   259.9   260.0
  11    259.9   260.1   260.3   260.5   260.6   260.8   260.9   261.0   261.0   260.9   260.8   260.6   260.5   260.4   260.3
  12      0.0   260.6   260.8   261.1   261.3   261.5   261.7   261.8   261.8   261.7   261.5   261.3   261.0   260.8   260.5
  13      0.0   260.9   261.3   261.7   262.0   262.3   262.6   262.7   262.7   262.5   262.3   262.0   261.6   261.1     0.0
  14      0.0   260.7   261.7   262.3   262.8   263.2   263.6   263.7   263.7   263.5   263.2   262.7   262.1   261.0     0.0
  15      0.0     0.0   262.4   263.0   263.6   264.2   264.7   265.0   265.0   264.7   264.1   263.5   262.9     0.0     0.0
  16      0.0     0.0   262.4   263.6   264.4   265.3   266.1   266.5   266.5   266.0   265.2   264.2   263.2     0.0     0.0
  17      0.0     0.0     0.0   264.5   265.3   266.4   267.7   268.6   268.6   267.7   266.3   264.9   263.5     0.0     0.0
  18      0.0     0.0     0.0   264.5   265.7   267.3   269.7   271.6   271.6   270.0   267.3   265.5     0.0     0.0     0.0
  19      0.0     0.0     0.0     0.0     0.0     0.0   272.4   276.3   276.5   273.2     0.0     0.0     0.0     0.0     0.0
  20      0.0     0.0     0.0     0.0     0.0     0.0     0.0   285.0   285.0     0.0     0.0     0.0     0.0     0.0     0.0

 The following is a calculated (or recalculated) SUB-WT array after the initial steady-state stress period:
1
  EFFECTIVE STRESS IN LAYER   3 AT END OF TIME STEP   1 IN STRESS PERIOD    1
  ---------------------------------------------------------------------------

           1       2       3       4       5       6       7       8       9      10      11      12      13      14      15
 ...........................................................................................................................
   1      0.0     0.0     0.0     0.0     0.0   305.4   305.3   305.1   305.3   305.5     0.0     0.0     0.0     0.0     0.0
   2      0.0     0.0     0.0     0.0   305.3   305.5   305.5   305.4   305.5   305.6   305.5   305.3     0.0     0.0     0.0
   3      0.0     0.0     0.0   305.6   305.7   305.8   305.9   305.9   305.9   305.9   305.8   305.6     0.0     0.0     0.0
   4      0.0     0.0     0.0   306.2   306.2   306.3   306.4   306.4   306.4   306.3   306.2   306.0     0.0     0.0     0.0
   5      0.0     0.0   306.7   306.7   306.8   306.9   306.9   307.0   306.9   306.9   306.8   306.6   306.6     0.0     0.0
   6      0.0     0.0   307.3   307.3   307.4   307.5   307.5   307.5   307.5   307.5   307.4   307.3   307.2   307.3     0.0
   7      0.0   307.9   307.9   308.0   308.0   308.1   308.1   308.2   308.1   308.1   308.1   308.0   307.9   307.9     0.0
   8      0.0   308.5   308.5   308.6   308.7   308.7   308.8   308.8   308.8   308.8   308.7   308.7   308.6   308.6     0.0
   9    309.4   309.2   309.2   309.2   309.3   309.4   309.5   309.5   309.5   309.5   309.4   309.4   309.3   309.4   309.7
  10    309.7   309.7   309.7   309.8   310.0   310.1   310.2   310.2   310.2   310.2   310.1   310.0   309.9   309.9   310.0
  11    309.9   310.1   310.3   310.5   310.6   310.8   310.9   311.0   311.0   310.9   310.8   310.6   310.5   310.4   310.3
  12      0.0   310.6   310.8   311.1   311.3   311.5   311.7   311.8   311.8   311.7   311.5   311.3   311.0   310.8   310.5
  13      0.0   311.0   311.3   311.7   312.0   312.3   312.6   312.7   312.7   312.5   312.3   312.0   311.6   311.2     0.0
  14      0.0   311.1   311.8   312.3   312.8   313.2   313.6   313.7   313.7   313.5   313.2   312.7   312.2   311.4     0.0
  15      0.0     0.0   312.5   313.0   313.6   314.2   314.7   315.0   315.0   314.7   314.1   313.5   313.1     0.0     0.0
  16      0.0     0.0   312.8   313.7   314.5   315.3   316.1   316.6   316.6   316.0   315.2   314.3   313.6     0.0     0.0
  17      0.0     0.0     0.0   314.6   315.3   316.4   317.7   318.6   318.7   317.8   316.3   315.1   314.0     0.0     0.0
  18      0.0     0.0     0.0   314.9   315.8   317.3   319.8   321.6   321.7   320.0   317.4   315.9     0.0     0.0     0.0
  19      0.0     0.0     0.0     0.0     0.0     0.0   322.8   326.4   326.6   323.3     0.0     0.0     0.0     0.0     0.0
  20      0.0     0.0     0.0     0.0     0.0     0.0     0.0   335.0   335.0     0.0     0.0     0.0     0.0     0.0     0.0

 The following is a calculated (or recalculated) SUB-WT array after the initial steady-state stress period:
1
  EFFECTIVE STRESS IN LAYER   4 AT END OF TIME STEP   1 IN STRESS PERIOD    1
  ---------------------------------------------------------------------------

           1       2       3       4       5       6       7       8       9      10      11      12      13      14      15
 ...........................................................................................................................
   1      0.0     0.0     0.0     0.0     0.0   505.4   505.4   505.5   505.5   505.5     0.0     0.0     0.0     0.0     0.0
   2      0.0     0.0     0.0     0.0   505.7   505.6   505.6   505.7   505.6   505.6   505.6   505.6     0.0     0.0     0.0
   3      0.0     0.0     0.0   506.0   505.9   505.9   505.9   506.0   506.0   505.9   505.9   505.8     0.0     0.0     0.0
   4      0.0     0.0     0.0   506.3   506.3   506.4   506.4   506.4   506.4   506.4   506.3   506.3     0.0     0.0     0.0
   5      0.0     0.0   507.1   506.8   506.9   506.9   506.9   507.0   506.9   506.9   506.8   506.8   507.0     0.0     0.0
   6      0.0     0.0   507.4   507.4   507.4   507.5   507.5   507.5   507.5   507.5   507.4   507.4   507.4   507.6     0.0
   7      0.0   508.3   508.0   508.0   508.0   508.1   508.1   508.2   508.2   508.1   508.1   508.0   508.0   508.0     0.0
   8      0.0   508.6   508.6   508.6   508.7   508.7   508.8   508.8   508.8   508.8   508.7   508.7   508.7   508.7     0.0
   9    509.4   509.2   509.2   509.2   509.3   509.4   509.5   509.5   509.5   509.5   509.4   509.4   509.3   509.4   509.7
  10    509.7   509.7   509.8   509.9   510.0   510.1   510.2   510.2   510.2   510.2   510.1   510.0   509.9   509.9   510.0
  11    509.9   510.1   510.3   510.5   510.6   510.8   510.9   511.0   511.0   510.9   510.8   510.6   510.5   510.4   510.3
  12      0.0   510.6   510.8   511.1   511.3   511.5   511.7   511.8   511.8   511.7   511.5   511.3   511.0   510.8   510.5
  13      0.0   511.1   511.3   511.7   512.0   512.3   512.6   512.7   512.7   512.6   512.3   512.0   511.6   511.3     0.0
  14      0.0   511.4   511.9   512.3   512.8   513.2   513.6   513.8   513.7   513.5   513.2   512.7   512.3   511.7     0.0
  15      0.0     0.0   512.6   513.1   513.6   514.2   514.7   515.0   515.0   514.7   514.2   513.6   513.2     0.0     0.0
  16      0.0     0.0   513.1   513.8   514.5   515.3   516.1   516.6   516.6   516.1   515.3   514.4   514.0     0.0     0.0
  17      0.0     0.0     0.0   514.7   515.4   516.4   517.8   518.7   518.7   517.8   516.4   515.3   514.4     0.0     0.0
  18      0.0     0.0     0.0   515.3   515.9   517.4   520.0   521.7   521.8   520.1   517.5   516.3     0.0     0.0     0.0
  19      0.0     0.0     0.0     0.0     0.0     0.0   523.2   526.6   526.7   523.3     0.0     0.0     0.0     0.0     0.0
  20      0.0     0.0     0.0     0.0     0.0     0.0     0.0   535.0   535.0     0.0     0.0     0.0     0.0     0.0     0.0

 The following is a calculated (or recalculated) SUB-WT array after the initial steady-state stress period:
1
  PRECONSOL STRESS IN LAYER   1 AT END OF TIME STEP   1 IN STRESS PERIOD    1
  ---------------------------------------------------------------------------

           1       2       3       4       5       6       7       8       9      10      11      12      13      14      15
 ...........................................................................................................................
   1      0.0     0.0     0.0     0.0     0.0   120.3   120.2   119.7   120.2   120.4     0.0     0.0     0.0     0.0     0.0
   2      0.0     0.0     0.0     0.0   119.8   120.4   120.4   120.0   120.4   120.5   120.4   119.8     0.0     0.0     0.0
   3      0.0     0.0     0.0   120.1   120.5   120.8   120.8   120.8   120.9   120.9   120.7   120.4     0.0     0.0     0.0
   4      0.0     0.0     0.0   121.0   121.2   121.3   121.4   121.4   121.4   121.3   121.1   120.5     0.0     0.0     0.0
   5      0.0     0.0   121.2   121.6   121.8   121.9   121.9   121.9   121.9   121.9   121.7   121.5   121.1     0.0     0.0
   6      0.0     0.0   122.2   122.3   122.4   122.5   122.5   122.5   122.5   122.5   122.4   122.2   122.1   121.8     0.0
   7      0.0   122.4   122.8   122.9   123.0   123.1   123.1   123.2   123.1   123.1   123.0   123.0   122.9   122.8     0.0
   8      0.0   123.4   123.5   123.6   123.7   123.7   123.8   123.8   123.8   123.8   123.7   123.7   123.6   123.6     0.0
   9    124.4   124.2   124.2   124.2   124.3   124.4   124.5   124.5   124.5   124.5   124.4   124.3   124.3   124.4   124.7
  10    124.7   124.7   124.7   124.8   125.0   125.1   125.2   125.2   125.2   125.2   125.1   125.0   124.9   124.9   125.0
  11    124.9   125.1   125.3   125.4   125.6   125.8   125.9   126.0   126.0   125.9   125.8   125.6   125.5   125.4   125.3
  12      0.0   125.6   125.8   126.1   126.3   126.5   126.7   126.8   126.8   126.7   126.5   126.3   126.0   125.8   125.5
  13      0.0   125.9   126.3   126.6   127.0   127.3   127.6   127.7   127.7   127.5   127.3   127.0   126.5   126.1     0.0
  14      0.0   125.6   126.7   127.3   127.8   128.2   128.6   128.7   128.7   128.5   128.2   127.7   127.1   125.9     0.0
  15      0.0     0.0   127.4   128.0   128.6   129.2   129.7   130.0   130.0   129.7   129.1   128.5   127.9     0.0     0.0
  16      0.0     0.0   127.3   128.6   129.4   130.3   131.1   131.5   131.5   131.0   130.2   129.2   128.1     0.0     0.0
  17      0.0     0.0     0.0   129.5   130.3   131.4   132.7   133.6   133.6   132.7   131.3   129.9   128.4     0.0     0.0
  18      0.0     0.0     0.0   129.4   130.7   132.3   134.7   136.6   136.6   134.9   132.3   130.4     0.0     0.0     0.0
  19      0.0     0.0     0.0     0.0     0.0     0.0   137.3   141.3   141.5   138.2     0.0     0.0     0.0     0.0     0.0
  20      0.0     0.0     0.0     0.0     0.0     0.0     0.0     0.0     0.0     0.0     0.0     0.0     0.0     0.0     0.0

 The following is a calculated (or recalculated) SUB-WT array after the initial steady-state stress period:
1
  PRECONSOL STRESS IN LAYER   2 AT END OF TIME STEP   1 IN STRESS PERIOD    1
  ---------------------------------------------------------------------------

           1       2       3       4       5       6       7       8       9      10      11      12      13      14      15
 ...........................................................................................................................
   1      0.0     0.0     0.0     0.0     0.0   270.3   270.2   269.8   270.2   270.4     0.0     0.0     0.0     0.0     0.0
   2      0.0     0.0     0.0     0.0   269.9   270.4   270.4   270.1   270.5   270.6   270.4   269.9     0.0     0.0     0.0
   3      0.0     0.0     0.0   270.3   270.6   270.8   270.8   270.8   270.9   270.9   270.7   270.4     0.0     0.0     0.0
   4      0.0     0.0     0.0   271.1   271.2   271.3   271.4   271.4   271.4   271.3   271.1   270.6     0.0     0.0     0.0
   5      0.0     0.0   271.4   271.6   271.8   271.9   271.9   271.9   271.9   271.9   271.7   271.5   271.2     0.0     0.0
   6      0.0     0.0   272.2   272.3   272.4   272.5   272.5   272.5   272.5   272.5   272.4   272.2   272.1   271.9     0.0
   7      0.0   272.6   272.8   272.9   273.0   273.1   273.1   273.2   273.1   273.1   273.0   273.0   272.9   272.8     0.0
   8      0.0   273.4   273.5   273.6   273.7   273.7   273.8   273.8   273.8   273.8   273.7   273.7   273.6   273.6     0.0
   9    274.4   274.2   274.2   274.2   274.3   274.4   274.5   274.5   274.5   274.5   274.4   274.3   274.3   274.4   274.7
  10    274.7   274.7   274.7   274.8   275.0   275.1   275.2   275.2   275.2   275.2   275.1   275.0   274.9   274.9   275.0
  11    274.9   275.1   275.3   275.5   275.6   275.8   275.9   276.0   276.0   275.9   275.8   275.6   275.5   275.4   275.3
  12      0.0   275.6   275.8   276.1   276.3   276.5   276.7   276.8   276.8   276.7   276.5   276.3   276.0   275.8   275.5
  13      0.0   275.9   276.3   276.7   277.0   277.3   277.6   277.7   277.7   277.5   277.3   277.0   276.6   276.1     0.0
  14      0.0   275.7   276.7   277.3   277.8   278.2   278.6   278.7   278.7   278.5   278.2   277.7   277.1   276.0     0.0
  15      0.0     0.0   277.4   278.0   278.6   279.2   279.7   280.0   280.0   279.7   279.1   278.5   277.9     0.0     0.0
  16      0.0     0.0   277.4   278.6   279.4   280.3   281.1   281.5   281.5   281.0   280.2   279.2   278.2     0.0     0.0
  17      0.0     0.0     0.0   279.5   280.3   281.4   282.7   283.6   283.6   282.7   281.3   279.9   278.5     0.0     0.0
  18      0.0     0.0     0.0   279.5   280.7   282.3   284.7   286.6   286.6   285.0   282.3   280.5     0.0     0.0     0.0
  19      0.0     0.0     0.0     0.0     0.0     0.0   287.4   291.3   291.5   288.2     0.0     0.0     0.0     0.0     0.0
  20      0.0     0.0     0.0     0.0     0.0     0.0     0.0     0.0     0.0     0.0     0.0     0.0     0.0     0.0     0.0

 The following is a calculated (or recalculated) SUB-WT array after the initial steady-state stress period:
1
  PRECONSOL STRESS IN LAYER   3 AT END OF TIME STEP   1 IN STRESS PERIOD    1
  ---------------------------------------------------------------------------

           1       2       3       4       5       6       7       8       9      10      11      12      13      14      15
 ...........................................................................................................................
   1      0.0     0.0     0.0     0.0     0.0   320.4   320.3   320.1   320.3   320.5     0.0     0.0     0.0     0.0     0.0
   2      0.0     0.0     0.0     0.0   320.3   320.5   320.5   320.4   320.5   320.6   320.5   320.3     0.0     0.0     0.0
   3      0.0     0.0     0.0   320.6   320.7   320.8   320.9   320.9   320.9   320.9   320.8   320.6     0.0     0.0     0.0
   4      0.0     0.0     0.0   321.2   321.2   321.3   321.4   321.4   321.4   321.3   321.2   321.0     0.0     0.0     0.0
   5      0.0     0.0   321.7   321.7   321.8   321.9   321.9   322.0   321.9   321.9   321.8   321.6   321.6     0.0     0.0
   6      0.0     0.0   322.3   322.3   322.4   322.5   322.5   322.5   322.5   322.5   322.4   322.3   322.2   322.3     0.0
   7      0.0   322.9   322.9   323.0   323.0   323.1   323.1   323.2   323.1   323.1   323.1   323.0   322.9   322.9     0.0
   8      0.0   323.5   323.5   323.6   323.7   323.7   323.8   323.8   323.8   323.8   323.7   323.7   323.6   323.6     0.0
   9    324.4   324.2   324.2   324.2   324.3   324.4   324.5   324.5   324.5   324.5   324.4   324.4   324.3   324.4   324.7
  10    324.7   324.7   324.7   324.8   325.0   325.1   325.2   325.2   325.2   325.2   325.1   325.0   324.9   324.9   325.0
  11    324.9   325.1   325.3   325.5   325.6   325.8   325.9   326.0   326.0   325.9   325.8   325.6   325.5   325.4   325.3
  12      0.0   325.6   325.8   326.1   326.3   326.5   326.7   326.8   326.8   326.7   326.5   326.3   326.0   325.8   325.5
  13      0.0   326.0   326.3   326.7   327.0   327.3   327.6   327.7   327.7   327.5   327.3   327.0   326.6   326.2     0.0
  14      0.0   326.1   326.8   327.3   327.8   328.2   328.6   328.7   328.7   328.5   328.2   327.7   327.2   326.4     0.0
  15      0.0     0.0   327.5   328.0   328.6   329.2   329.7   330.0   330.0   329.7   329.1   328.5   328.1     0.0     0.0
  16      0.0     0.0   327.8   328.7   329.5   330.3   331.1   331.6   331.6   331.0   330.2   329.3   328.6     0.0     0.0
  17      0.0     0.0     0.0   329.6   330.3   331.4   332.7   333.6   333.7   332.8   331.3   330.1   329.0     0.0     0.0
  18      0.0     0.0     0.0   329.9   330.8   332.3   334.8   336.6   336.7   335.0   332.4   330.9     0.0     0.0     0.0
  19      0.0     0.0     0.0     0.0     0.0     0.0   337.8   341.4   341.6   338.3     0.0     0.0     0.0     0.0     0.0
  20      0.0     0.0     0.0     0.0     0.0     0.0     0.0     0.0     0.0     0.0     0.0     0.0     0.0     0.0     0.0

 The following is a calculated (or recalculated) SUB-WT array after the initial steady-state stress period:
1
  PRECONSOL STRESS IN LAYER   4 AT END OF TIME STEP   1 IN STRESS PERIOD    1
  ---------------------------------------------------------------------------

           1       2       3       4       5       6       7       8       9      10      11      12      13      14      15
 ...........................................................................................................................
   1      0.0     0.0     0.0     0.0     0.0   520.4   520.4   520.5   520.5   520.5     0.0     0.0     0.0     0.0     0.0
   2      0.0     0.0     0.0     0.0   520.7   520.6   520.6   520.7   520.6   520.6   520.6   520.6     0.0     0.0     0.0
   3      0.0     0.0     0.0   521.0   520.9   520.9   520.9   521.0   521.0   520.9   520.9   520.8     0.0     0.0     0.0
   4      0.0     0.0     0.0   521.3   521.3   521.4   521.4   521.4   521.4   521.4   521.3   521.3     0.0     0.0     0.0
   5      0.0     0.0   522.1   521.8   521.9   521.9   521.9   522.0   521.9   521.9   521.8   521.8   522.0     0.0     0.0
   6      0.0     0.0   522.4   522.4   522.4   522.5   522.5   522.5   522.5   522.5   522.4   522.4   522.4   522.6     0.0
   7      0.0   523.3   523.0   523.0   523.0   523.1   523.1   523.2   523.2   523.1   523.1   523.0   523.0   523.0     0.0
   8      0.0   523.6   523.6   523.6   523.7   523.7   523.8   523.8   523.8   523.8   523.7   523.7   523.7   523.7     0.0
   9    524.4   524.2   524.2   524.2   524.3   524.4   524.5   524.5   524.5   524.5   524.4   524.4   524.3   524.4   524.7
  10    524.7   524.7   524.8   524.9   525.0   525.1   525.2   525.2   525.2   525.2   525.1   525.0   524.9   524.9   525.0
  11    524.9   525.1   525.3   525.5   525.6   525.8   525.9   526.0   526.0   525.9   525.8   525.6   525.5   525.4   525.3
  12      0.0   525.6   525.8   526.1   526.3   526.5   526.7   526.8   526.8   526.7   526.5   526.3   526.0   525.8   525.5
  13      0.0   526.1   526.3   526.7   527.0   527.3   527.6   527.7   527.7   527.6   527.3   527.0   526.6   526.3     0.0
  14      0.0   526.4   526.9   527.3   527.8   528.2   528.6   528.8   528.7   528.5   528.2   527.7   527.3   526.7     0.0
  15      0.0     0.0   527.6   528.1   528.6   529.2   529.7   530.0   530.0   529.7   529.2   528.6   528.2     0.0     0.0
  16      0.0     0.0   528.1   528.8   529.5   530.3   531.1   531.6   531.6   531.1   530.3   529.4   529.0     0.0     0.0
  17      0.0     0.0     0.0   529.7   530.4   531.4   532.8   533.7   533.7   532.8   531.4   530.3   529.4     0.0     0.0
  18      0.0     0.0     0.0   530.3   530.9   532.4   535.0   536.7   536.8   535.1   532.5   531.3     0.0     0.0     0.0
  19      0.0     0.0     0.0     0.0     0.0     0.0   538.2   541.6   541.7   538.3     0.0     0.0     0.0     0.0     0.0
  20      0.0     0.0     0.0     0.0     0.0     0.0     0.0     0.0     0.0     0.0     0.0     0.0     0.0     0.0     0.0
 The following array is for system   1 of compressible interbeds:
1
   EQUIVALENT Sske IN LAYER   1 AT END OF TIME STEP   1 IN STRESS PERIOD    1
  ---------------------------------------------------------------------------

            1           2           3           4           5           6           7           8           9          10
           11          12          13          14          15
 ........................................................................................................................
   1    0.000       0.000       0.000       0.000       0.000      4.0387E-05  4.0531E-05  4.1112E-05  4.0460E-05  4.0250E-05
        0.000       0.000       0.000       0.000       0.000    
[...]
   5      0.0     0.0   114.2   114.6   114.8   114.9   114.9   115.0   115.0   115.0   114.8   114.6   114.3     0.0     0.0
   6      0.0     0.0   115.2   115.3   115.4   115.5   115.6   115.6   115.6   115.6   115.5   115.4   115.3   115.0     0.0
   7      0.0   115.4   115.8   115.9   116.0   116.1   116.2   116.2   116.3   116.3   116.2   116.2   116.2   116.1     0.0
   8      0.0   116.4   116.5   116.6   116.7   116.8   116.8   116.9   116.9   116.9   116.9   116.9   116.9   116.9     0.0
   9    117.4   117.2   117.2   117.2   117.3   117.4   117.5   117.5   117.6   117.6   117.6   117.6   117.6   117.7   118.0
  10    117.7   117.6   117.7   117.8   117.9   118.0   118.1   118.2   118.2   118.2   118.2   118.1   118.1   118.1   118.2
  11    117.9   118.0   118.2   118.3   118.5   118.6   118.7   118.8   118.8   118.8   118.8   118.7   118.6   118.5   118.5
  12      0.0   118.4   118.6   118.8   119.0   119.2   119.4   119.4   119.5   119.4   119.3   119.2   119.0   118.8   118.7
  13      0.0   118.5   118.9   119.2   119.5   119.8   120.0   120.1   120.1   120.0   119.9   119.6   119.3   119.0     0.0
  14      0.0   118.1   119.1   119.6   120.1   120.4   120.7   120.9   120.9   120.7   120.4   120.1   119.6   118.6     0.0
  15      0.0     0.0   119.6   120.1   120.6   121.1   121.5   121.7   121.7   121.5   121.0   120.5   120.1     0.0     0.0
  16      0.0     0.0   119.4   120.5   121.2   121.8   122.4   122.7   122.7   122.3   121.7   120.9   119.9     0.0     0.0
  17      0.0     0.0     0.0   121.1   121.7   122.5   123.4   124.1   124.1   123.4   122.4   121.3   120.0     0.0     0.0
  18      0.0     0.0     0.0   120.8   121.9   123.1   124.7   126.0   126.1   124.9   123.0   121.5     0.0     0.0     0.0
  19      0.0     0.0     0.0     0.0     0.0     0.0   126.2   129.1   129.3   127.1     0.0     0.0     0.0     0.0     0.0
  20      0.0     0.0     0.0     0.0     0.0     0.0     0.0   135.0   135.0     0.0     0.0     0.0     0.0     0.0     0.0
1
  EFFECTIVE STRESS IN LAYER   2 AT END OF TIME STEP  60 IN STRESS PERIOD    3
  ---------------------------------------------------------------------------

           1       2       3       4       5       6       7       8       9      10      11      12      13      14      15
 ...........................................................................................................................
   1      0.0     0.0     0.0     0.0     0.0   263.2   263.1   262.7   263.2   263.4     0.0     0.0     0.0     0.0     0.0
   2      0.0     0.0     0.0     0.0   262.8   263.3   263.3   263.0   263.4   263.5   263.4   262.9     0.0     0.0     0.0
   3      0.0     0.0     0.0   263.2   263.5   263.7   263.8   263.8   263.9   263.9   263.8   263.5     0.0     0.0     0.0
   4      0.0     0.0     0.0   264.0   264.1   264.3   264.3   264.4   264.4   264.4   264.2   263.7     0.0     0.0     0.0
   5      0.0     0.0   264.3   264.6   264.8   264.9   264.9   265.0   265.0   265.0   264.8   264.6   264.4     0.0     0.0
   6      0.0     0.0   265.2   265.3   265.4   265.5   265.6   265.6   265.6   265.6   265.5   265.4   265.3   265.2     0.0
   7      0.0   265.5   265.8   265.9   266.0   266.1   266.2   266.2   266.3   266.3   266.2   266.2   266.1   266.1     0.0
   8      0.0   266.4   266.5   266.6   266.7   266.8   266.8   266.9   266.9   266.9   266.9   266.9   266.9   266.9     0.0
   9    267.4   267.2   267.2   267.2   267.3   267.4   267.5   267.5   267.6   267.6   267.6   267.6   267.6   267.7   268.0
  10    267.6   267.6   267.7   267.8   267.9   268.0   268.1   268.2   268.2   268.2   268.2   268.1   268.1   268.1   268.2
  11    267.8   268.0   268.2   268.3   268.5   268.6   268.7   268.8   268.8   268.8   268.7   268.7   268.6   268.5   268.5
  12      0.0   268.4   268.6   268.8   269.0   269.2   269.3   269.4   269.5   269.4   269.3   269.2   269.0   268.8   268.7
  13      0.0   268.5   268.9   269.2   269.5   269.8   270.0   270.1   270.1   270.0   269.9   269.6   269.3   269.0     0.0
  14      0.0   268.3   269.1   269.6   270.1   270.4   270.7   270.8   270.9   270.7   270.4   270.1   269.6   268.7     0.0
  15      0.0     0.0   269.6   270.1   270.6   271.1   271.5   271.7   271.7   271.5   271.0   270.5   270.1     0.0     0.0
  16      0.0     0.0   269.5   270.5   271.2   271.8   272.4   272.7   272.7   272.3   271.7   270.9   270.0     0.0     0.0
  17      0.0     0.0     0.0   271.1   271.7   272.5   273.4   274.1   274.1   273.4   272.4   271.3   270.1     0.0     0.0
  18      0.0     0.0     0.0   270.9   271.9   273.1   274.7   276.0   276.1   274.9   273.0   271.6     0.0     0.0     0.0
  19      0.0     0.0     0.0     0.0     0.0     0.0   276.3   279.2   279.3   277.1     0.0     0.0     0.0     0.0     0.0
  20      0.0     0.0     0.0     0.0     0.0     0.0     0.0   285.0   285.0     0.0     0.0     0.0     0.0     0.0     0.0
1
  EFFECTIVE STRESS IN LAYER   3 AT END OF TIME STEP  60 IN STRESS PERIOD    3
  ---------------------------------------------------------------------------

           1       2       3       4       5       6       7       8       9      10      11      12      13      14      15
 ...........................................................................................................................
   1      0.0     0.0     0.0     0.0     0.0   313.3   313.2   313.0   313.3   313.4     0.0     0.0     0.0     0.0     0.0
   2      0.0     0.0     0.0     0.0   313.2   313.4   313.4   313.3   313.5   313.6   313.5   313.3     0.0     0.0     0.0
   3      0.0     0.0     0.0   313.5   313.6   313.8   313.8   313.8   313.9   313.9   313.8   313.7     0.0     0.0     0.0
   4      0.0     0.0     0.0   314.1   314.2   314.3   314.4   314.4   314.4   314.4   314.3   314.0     0.0     0.0     0.0
   5      0.0     0.0   314.7   314.7   314.8   314.9   314.9   315.0   315.0   315.0   314.9   314.8   314.8     0.0     0.0
   6      0.0     0.0   315.3   315.3   315.4   315.5   315.6   315.6   315.6   315.6   315.5   315.5   315.5   315.5     0.0
   7      0.0   315.9   315.9   316.0   316.0   316.1   316.2   316.2   316.2   316.2   316.2   316.2   316.2   316.2     0.0
   8      0.0   316.5   316.5   316.6   316.7   316.7   316.8   316.9   316.9   316.9   316.9   316.9   316.9   316.9     0.0
   9    317.4   317.2   317.2   317.2   317.3   317.4   317.4   317.5   317.5   317.5   317.5   317.5   317.5   317.6   317.9
  10    317.6   317.6   317.7   317.8   317.9   318.0   318.1   318.1   318.2   318.2   318.1   318.1   318.1   318.1   318.2
  11    317.8   318.0   318.1   318.3   318.4   318.6   318.7   318.8   318.8   318.8   318.7   318.6   318.6   318.5   318.5
  12      0.0   318.4   318.6   318.8   319.0   319.2   319.3   319.4   319.4   319.4   319.3   319.1   319.0   318.8   318.6
  13      0.0   318.6   318.9   319.2   319.5   319.8   320.0   320.1   320.1   320.0   319.8   319.6   319.3   319.0     0.0
  14      0.0   318.6   319.2   319.6   320.0   320.4   320.7   320.8   320.8   320.7   320.4   320.1   319.6   319.0     0.0
  15      0.0     0.0   319.7   320.1   320.6   321.1   321.4   321.7   321.7   321.4   321.0   320.6   320.2     0.0     0.0
  16      0.0     0.0   319.8   320.6   321.2   321.8   322.4   322.7   322.7   322.3   321.7   321.0   320.4     0.0     0.0
  17      0.0     0.0     0.0   321.2   321.7   322.5   323.4   324.1   324.1   323.4   322.4   321.4   320.5     0.0     0.0
  18      0.0     0.0     0.0   321.3   322.0   323.1   324.8   326.1   326.1   324.9   323.1   321.9     0.0     0.0     0.0
  19      0.0     0.0     0.0     0.0     0.0     0.0   326.7   329.2   329.4   327.2     0.0     0.0     0.0     0.0     0.0
  20      0.0     0.0     0.0     0.0     0.0     0.0     0.0   335.0   335.0     0.0     0.0     0.0     0.0     0.0     0.0
1
  EFFECTIVE STRESS IN LAYER   4 AT END OF TIME STEP  60 IN STRESS PERIOD    3
  ---------------------------------------------------------------------------

           1       2       3       4       5       6       7       8       9      10      11      12      13      14      15
 ...........................................................................................................................
   1      0.0     0.0     0.0     0.0     0.0   513.3   513.3   513.4   513.4   513.5     0.0     0.0     0.0     0.0     0.0
   2      0.0     0.0     0.0     0.0   513.6   513.5   513.5   513.6   513.6   513.6   513.6   513.7     0.0     0.0     0.0
   3      0.0     0.0     0.0   513.9   513.8   513.8   513.9   513.9   514.0   514.0   513.9   513.8     0.0     0.0     0.0
   4      0.0     0.0     0.0   514.2   514.3   514.3   514.4   514.4   514.4   514.4   514.3   514.4     0.0     0.0     0.0
   5      0.0     0.0   515.0   514.8   514.8   514.9   515.0   515.0   515.0   515.0   514.9   514.9   515.2     0.0     0.0
   6      0.0     0.0   515.4   515.4   515.4   515.5   515.6   515.6   515.6   515.6   515.6   515.5   515.6   515.9     0.0
   7      0.0   516.3   516.0   516.0   516.0   516.1   516.2   516.2   516.2   516.2   516.2   516.2   516.2   516.3     0.0
   8      0.0   516.6   516.6   516.6   516.7   516.7   516.8   516.8   516.9   516.9   516.9   516.9   516.9   516.9     0.0
   9    517.4   517.2   517.1   517.2   517.3   517.4   517.4   517.5   517.5   517.5   517.5   517.5   517.5   517.6   517.9
  10    517.6   517.6   517.7   517.7   517.9   518.0   518.0   518.1   518.1   518.1   518.1   518.1   518.1   518.1   518.1
  11    517.8   518.0   518.1   518.3   518.4   518.6   518.7   518.7   518.8   518.7   518.7   518.6   518.5   518.5   518.4
  12      0.0   518.4   518.5   518.7   519.0   519.1   519.3   519.4   519.4   519.3   519.2   519.1   518.9   518.8   518.6
  13      0.0   518.7   518.9   519.2   519.5   519.7   519.9   520.1   520.1   520.0   519.8   519.6   519.3   519.1     0.0
  14      0.0   518.9   519.3   519.7   520.0   520.4   520.6   520.8   520.8   520.6   520.4   520.0   519.7   519.4     0.0
  15      0.0     0.0   519.8   520.1   520.6   521.0   521.4   521.6   521.6   521.4   521.0   520.6   520.2     0.0     0.0
  16      0.0     0.0   520.2   520.6   521.2   521.8   522.3   522.7   522.7   522.3   521.7   521.1   520.7     0.0     0.0
  17      0.0     0.0     0.0   521.2   521.7   522.5   523.4   524.1   524.1   523.4   522.4   521.6   521.0     0.0     0.0
  18      0.0     0.0     0.0   521.6   522.1   523.1   524.9   526.1   526.1   525.0   523.2   522.3     0.0     0.0     0.0
  19      0.0     0.0     0.0     0.0     0.0     0.0   527.1   529.3   529.4   527.2     0.0     0.0     0.0     0.0     0.0
  20      0.0     0.0     0.0     0.0     0.0     0.0     0.0   535.0   535.0     0.0     0.0     0.0     0.0     0.0     0.0
1
  CHANGE IN EFF-ST IN LAYER   1 AT END OF TIME STEP  60 IN STRESS PERIOD    3
  ---------------------------------------------------------------------------

         1     2     3     4     5     6     7     8     9    10    11    12    13    14    15
 .............................................................................................
   1   0.00  0.00  0.00  0.00  0.00  7.88  7.89  7.88  7.92  7.94  0.00  0.00  0.00  0.00  0.00
   2   0.00  0.00  0.00  0.00  7.87  7.89  7.90  7.90  7.94  7.97  8.00  7.99  0.00  0.00  0.00
   3   0.00  0.00  0.00  7.89  7.91  7.92  7.93  7.95  7.98  8.01  8.03  8.04  0.00  0.00  0.00
   4   0.00  0.00  0.00  7.94  7.94  7.95  7.97  7.99  8.02  8.05  8.07  8.07  0.00  0.00  0.00
   5   0.00  0.00  7.96  7.97  7.98  7.99  8.01  8.03  8.06  8.10  8.13  8.16  8.19  0.00  0.00
   6   0.00  0.00  7.99  8.00  8.01  8.02  8.04  8.07  8.10  8.14  8.17  8.21  8.24  8.26  0.00
   7   0.00  7.99  8.01  8.01  8.02  8.04  8.06  8.08  8.12  8.16  8.20  8.24  8.27  8.29  0.00
   8   0.00  8.01  8.01  8.01  8.02  8.03  8.05  8.08  8.11  8.15  8.20  8.24  8.28  8.30  0.00
   9   8.01  8.00  7.99  7.99  7.99  8.00  8.02  8.04  8.08  8.12  8.17  8.21  8.25  8.29  8.30
  10   7.99  7.97  7.95  7.94  7.93  7.93  7.94  7.97  8.00  8.04  8.09  8.15  8.20  8.24  8.27
  11   7.96  7.91  7.88  7.86  7.84  7.83  7.83  7.84  7.87  7.92  7.97  8.04  8.10  8.16  8.21
  12   0.00  7.80  7.77  7.73  7.70  7.67  7.66  7.67  7.69  7.74  7.80  7.88  7.96  8.04  8.16
  13   0.00  7.68  7.63  7.58  7.52  7.47  7.44  7.43  7.45  7.50  7.57  7.66  7.76  7.85  0.00
  14   0.00  7.57  7.47  7.38  7.30  7.21  7.15  7.11  7.13  7.19  7.28  7.39  7.51  7.68  0.00
  15   0.00  0.00  7.24  7.15  7.03  6.90  6.78  6.71  6.72  6.80  6.93  7.06  7.15  0.00  0.00
  16   0.00  0.00  7.07  6.90  6.73  6.53  6.32  6.18  6.18  6.32  6.53  6.71  6.82  0.00  0.00
  17   0.00  0.00  0.00  6.60  6.43  6.14  5.74  5.48  5.48  5.73  6.10  6.38  6.61  0.00  0.00
  18   0.00  0.00  0.00  6.41  6.23  5.80  5.00  4.47  4.46  4.98  5.73  6.05  0.00  0.00  0.00
  19   0.00  0.00  0.00  0.00  0.00  0.00  3.94  2.87  2.87  3.94  0.00  0.00  0.00  0.00  0.00
  20   0.00  0.00  0.00  0.00  0.00  0.00  0.00  0.00  0.00  0.00  0.00  0.00  0.00  0.00  0.00
1
  CHANGE IN EFF-ST IN LAYER   2 AT END OF TIME STEP  60 IN STRESS PERIOD    3
  ---------------------------------------------------------------------------

         1     2     3     4     5     6     7     8     9    10    11    12    13    14    15
 .............................................................................................
   1   0.00  0.00  0.00  0.00  0.00  7.88  7.89  7.88  7.92  7.94  0.00  0.00  0.00  0.00  0.00
   2   0.00  0.00  0.00  0.00  7.87  7.89  7.90  7.90  7.94  7.97  8.00  7.99  0.00  0.00  0.00
   3   0.00  0.00  0.00  7.89  7.91  7.92  7.94  7.95  7.98  8.01  8.03  8.03  0.00  0.00  0.00
   4   0.00  0.00  0.00  7.94  7.94  7.96  7.97  7.99  8.02  8.05  8.07  8.07  0.00  0.00  0.00
   5   0.00  0.00  7.96  7.97  7.98  7.99  8.01  8.03  8.06  8.10  8.13  8.15  8.18  0.00  0.00
   6   0.00  0.00  7.99  8.00  8.00  8.02  8.04  8.07  8.10  8.13  8.17  8.21  8.24  8.25  0.00
   7   0.00  7.99  8.01  8.01  8.02  8.03  8.05  8.08  8.12  8.15  8.19  8.23  8.27  8.28  0.00
   8   0.00  8.01  8.01  8.01  8.02  8.03  8.05  8.08  8.11  8.15  8.19  8.23  8.27  8.29  0.00
   9   8.00  8.00  7.99  7.99  7.99  8.00  8.01  8.04  8.07  8.11  8.16  8.21  8.25  8.28  8.30
  10   7.98  7.97  7.95  7.94  7.93  7.93  7.94  7.96  7.99  8.04  8.09  8.14  8.19  8.23  8.26
  11   7.96  7.91  7.87  7.85  7.83  7.82  7.82  7.84  7.87  7.91  7.97  8.03  8.09  8.16  8.21
  12   0.00  7.79  7.76  7.73  7.70  7.67  7.66  7.66  7.69  7.73  7.80  7.87  7.95  8.04  8.15
  13   0.00  7.68  7.63  7.57  7.51  7.47  7.43  7.42  7.44  7.49  7.57  7.66  7.75  7.84  0.00
  14   0.00  7.56  7.46  7.38  7.29  7.21  7.14  7.11  7.12  7.18  7.28  7.38  7.50  7.67  0.00
  15   0.00  0.00  7.24  7.14  7.02  6.89  6.77  6.70  6.71  6.79  6.92  7.05  7.14  0.00  0.00
  16   0.00  0.00  7.06  6.89  6.73  6.53  6.31  6.18  6.18  6.31  6.52  6.70  6.81  0.00  0.00
  17   0.00  0.00  0.00  6.59  6.43  6.13  5.74  5.47  5.47  5.72  6.10  6.38  6.60  0.00  0.00
  18   0.00  0.00  0.00  6.40  6.23  5.80  5.00  4.46  4.45  4.97  5.72  6.05  0.00  0.00  0.00
  19   0.00  0.00  0.00  0.00  0.00  0.00  3.93  2.85  2.85  3.93  0.00  0.00  0.00  0.00  0.00
  20   0.00  0.00  0.00  0.00  0.00  0.00  0.00  0.00  0.00  0.00  0.00  0.00  0.00  0.00  0.00
1
  CHANGE IN EFF-ST IN LAYER   3 AT END OF TIME STEP  60 IN STRESS PERIOD    3
  ---------------------------------------------------------------------------

         1     2     3     4     5     6     7     8     9    10    11    12    13    14    15
 .............................................................................................
   1   0.00  0.00  0.00  0.00  0.00  7.90  7.90  7.90  7.93  7.95  0.00  0.00  0.00  0.00  0.00
   2   0.00  0.00  0.00  0.00  7.89  7.90  7.91  7.92  7.95  7.98  8.00  8.01  0.00  0.00  0.00
   3   0.00  0.00  0.00  7.91  7.92  7.93  7.94  7.96  7.98  8.01  8.03  8.04  0.00  0.00  0.00
   4   0.00  0.00  0.00  7.94  7.95  7.96  7.98  8.00  8.02  8.05  8.07  8.08  0.00  0.00  0.00
   5   0.00  0.00  7.97  7.97  7.98  7.99  8.01  8.03  8.06  8.09  8.12  8.14  8.18  0.00  0.00
   6   0.00  0.00  7.99  7.99  8.00  8.01  8.03  8.06  8.09  8.12  8.16  8.19  8.22  8.24  0.00
   7   0.00  7.99  8.00  8.00  8.01  8.02  8.04  8.07  8.10  8.14  8.17  8.21  8.24  8.26  0.00
   8   0.00  7.99  8.00  8.00  8.00  8.01  8.03  8.06  8.09  8.13  8.17  8.21  8.24  8.26  0.00
   9   7.98  7.98  7.97  7.97  7.97  7.98  7.99  8.02  8.05  8.09  8.13  8.18  8.22  8.24  8.26
  10   7.96  7.95  7.93  7.91  7.91  7.91  7.92  7.94  7.97  8.01  8.06  8.11  8.16  8.20  8.22
  11   7.94  7.88  7.85  7.83  7.81  7.80  7.80  7.81  7.84  7.88  7.93  7.99  8.06  8.12  8.17
  12   0.00  7.77  7.74  7.70  7.67  7.64  7.63  7.63  7.65  7.70  7.76  7.83  7.91  8.00  8.11
  13   0.00  7.65  7.60  7.54  7.49  7.44  7.40  7.39  7.41  7.46  7.53  7.62  7.71  7.80  0.00
  14   0.00  7.55  7.44  7.35  7.26  7.18  7.11  7.07  7.09  7.15  7.24  7.35  7.47  7.64  0.00
  15   0.00  0.00  7.21  7.11  6.99  6.86  6.74  6.67  6.68  6.76  6.89  7.01  7.11  0.00  0.00
  16   0.00  0.00  7.04  6.86  6.70  6.50  6.28  6.14  6.14  6.28  6.49  6.67  6.79  0.00  0.00
  17   0.00  0.00  0.00  6.56  6.40  6.10  5.71  5.44  5.43  5.69  6.06  6.35  6.58  0.00  0.00
  18   0.00  0.00  0.00  6.39  6.20  5.77  4.96  4.42  4.41  4.93  5.69  6.03  0.00  0.00  0.00
  19   0.00  0.00  0.00  0.00  0.00  0.00  3.90  2.80  2.80  3.89  0.00  0.00  0.00  0.00  0.00
  20   0.00  0.00  0.00  0.00  0.00  0.00  0.00  0.00  0.00  0.00  0.00  0.00  0.00  0.00  0.00
1
  CHANGE IN EFF-ST IN LAYER   4 AT END OF TIME STEP  60 IN STRESS PERIOD    3
  ---------------------------------------------------------------------------

         1     2     3     4     5     6     7     8     9    10    11    12    13    14    15
 .............................................................................................
   1   0.00  0.00  0.00  0.00  0.00  7.91  7.91  7.93  7.94  7.96  0.00  0.00  0.00  0.00  0.00
   2   0.00  0.00  0.00  0.00  7.91  7.92  7.93  7.94  7.96  7.98  8.01  8.02  0.00  0.00  0.00
   3   0.00  0.00  0.00  7.93  7.93  7.94  7.95  7.97  7.99  8.01  8.03  8.04  0.00  0.00  0.00
   4   0.00  0.00  0.00  7.95  7.95  7.96  7.98  8.00  8.02  8.05  8.07  8.08  0.00  0.00  0.00
   5   0.00  0.00  7.98  7.97  7.98  7.99  8.01  8.03  8.05  8.08  8.11  8.14  8.18  0.00  0.00
   6   0.00  0.00  7.98  7.99  7.99  8.01  8.03  8.05  8.08  8.11  8.14  8.17  8.20  8.23  0.00
   7   0.00  7.99  7.99  7.99  8.00  8.01  8.03  8.06  8.09  8.12  8.15  8.19  8.22  8.24  0.00
   8   0.00  7.98  7.98  7.98  7.99  8.00  8.01  8.04  8.07  8.11  8.14  8.18  8.21  8.23  0.00
   9   7.97  7.96  7.96  7.95  7.95  7.96  7.97  7.99  8.02  8.06  8.10  8.14  8.18  8.21  8.22
  10   7.94  7.93  7.91  7.89  7.88  7.88  7.89  7.91  7.94  7.98  8.02  8.07  8.12  8.16  8.19
  11   7.92  7.86  7.83  7.80  7.78  7.77  7.77  7.78  7.81  7.85  7.90  7.96  8.02  8.08  8.13
  12   0.00  7.74  7.71  7.68  7.64  7.61  7.60  7.60  7.62  7.67  7.73  7.80  7.87  7.96  8.07
  13   0.00  7.63  7.57  7.52  7.46  7.41  7.37  7.36  7.37  7.42  7.49  7.58  7.67  7.76  0.00
  14   0.00  7.53  7.41  7.32  7.23  7.15  7.08  7.04  7.05  7.11  7.20  7.31  7.43  7.62  0.00
  15   0.00  0.00  7.18  7.08  6.96  6.83  6.71  6.64  6.64  6.72  6.85  6.98  7.07  0.00  0.00
  16   0.00  0.00  7.03  6.84  6.67  6.46  6.25  6.11  6.11  6.25  6.45  6.64  6.77  0.00  0.00
  17   0.00  0.00  0.00  6.54  6.37  6.07  5.67  5.40  5.39  5.65  6.03  6.32  6.56  0.00  0.00
  18   0.00  0.00  0.00  6.37  6.17  5.73  4.92  4.37  4.36  4.89  5.66  6.01  0.00  0.00  0.00
  19   0.00  0.00  0.00  0.00  0.00  0.00  3.86  2.75  2.74  3.85  0.00  0.00  0.00  0.00  0.00
  20   0.00  0.00  0.00  0.00  0.00  0.00  0.00  0.00  0.00  0.00  0.00  0.00  0.00  0.00  0.00

 Run end date and time (yyyy/mm/dd hh:mm:ss): 2013/07/31 13:35:45
 Elapsed run time:  0.868 Seconds

