                                  MODFLOW-2005     
      U.S. GEOLOGICAL SURVEY MODULAR FINITE-DIFFERENCE GROUND-WATER FLOW MODEL
                            VERSION 1.11.00 8/8/2013

 LIST FILE: tc2hufv4.lst
                         UNIT    2

 OPENING tc2hufv4.huf
 FILE TYPE:HUF2   UNIT   11   STATUS:OLD    
 FORMAT:FORMATTED              ACCESS:SEQUENTIAL          

 OPENING tc2hufv4.hds
 FILE TYPE:DATA   UNIT   90   STATUS:UNKNOWN
 FORMAT:FORMATTED              ACCESS:SEQUENTIAL          
#Common files                                                                                                                                                                                                                                                                                               

 OPENING tc2hufv4.bas
 FILE TYPE:BAS6   UNIT    8   STATUS:OLD    
 FORMAT:FORMATTED              ACCESS:SEQUENTIAL          

 OPENING tc2hufv4.dis
 FILE TYPE:DIS   UNIT    9   STATUS:OLD    
 FORMAT:FORMATTED              ACCESS:SEQUENTIAL          

 OPENING tc2hufv4.wel
 FILE TYPE:WEL   UNIT   12   STATUS:OLD    
 FORMAT:FORMATTED              ACCESS:SEQUENTIAL          

 OPENING tc2hufv4.drn
 FILE TYPE:DRN   UNIT   13   STATUS:OLD    
 FORMAT:FORMATTED              ACCESS:SEQUENTIAL          

 OPENING tc2hufv4.evt
 FILE TYPE:EVT   UNIT   15   STATUS:OLD    
 FORMAT:FORMATTED              ACCESS:SEQUENTIAL          

 OPENING tc2hufv4.ghb
 FILE TYPE:GHB   UNIT   17   STATUS:OLD    
 FORMAT:FORMATTED              ACCESS:SEQUENTIAL          

 OPENING tc2hufv4.rch
 FILE TYPE:RCH   UNIT   18   STATUS:OLD    
 FORMAT:FORMATTED              ACCESS:SEQUENTIAL          

 OPENING tc2hufv4.oc
 FILE TYPE:OC   UNIT   22   STATUS:OLD    
 FORMAT:FORMATTED              ACCESS:SEQUENTIAL          

 OPENING tc2hufv4.pcg
 FILE TYPE:PCG   UNIT   23   STATUS:OLD    
 FORMAT:FORMATTED              ACCESS:SEQUENTIAL          

 OPENING tc2hufv4.zon
 FILE TYPE:ZONE   UNIT   39   STATUS:OLD    
 FORMAT:FORMATTED              ACCESS:SEQUENTIAL          

 BAS -- BASIC PACKAGE, VERSION 7, 5/2/2005 INPUT READ FROM UNIT    8
 
 MODFLOW was compiled using mixed precision
 Precision of REAL variables:           6
 Precision of DOUBLE PRECISION variables:          15

 DISCRETIZATION INPUT DATA READ FROM UNIT    9
 # DIS file for test case tc2hufv4
 #
    3 LAYERS        18 ROWS        18 COLUMNS
    1 STRESS PERIOD(S) IN SIMULATION
 MODEL TIME UNIT IS DAYS
 MODEL LENGTH UNIT IS METERS
  Confining bed flag for each layer:
   0   0   0

                     DELR =   1500.00    

                     DELC =   1500.00    



           TOP ELEVATION OF LAYER 1
 READING ON UNIT    9 WITH FORMAT: (18F10.2)           



             MODEL LAYER BOTTOM EL. FOR LAYER   1
 READING ON UNIT    9 WITH FORMAT: (18F10.2)           



             MODEL LAYER BOTTOM EL. FOR LAYER   2
 READING ON UNIT    9 WITH FORMAT: (18F10.2)           



             MODEL LAYER BOTTOM EL. FOR LAYER   3
 READING ON UNIT    9 WITH FORMAT: (18F10.2)           


 STRESS PERIOD     LENGTH       TIME STEPS     MULTIPLIER FOR DELT    SS FLAG
 ----------------------------------------------------------------------------
        1         86400.00          1                    1.000         SS

 STEADY-STATE SIMULATION



 
 # MODFLOW-2000 test case tc2hufv4                                               
 THE FREE FORMAT OPTION HAS BEEN SELECTED



                     BOUNDARY ARRAY FOR LAYER   1
 READING ON UNIT    8 WITH FORMAT: (18I3)              



                     BOUNDARY ARRAY FOR LAYER   2
 READING ON UNIT    8 WITH FORMAT: (18I3)              



                     BOUNDARY ARRAY FOR LAYER   3
 READING ON UNIT    8 WITH FORMAT: (18I3)              

 AQUIFER HEAD WILL BE SET TO   9999.0     AT ALL NO-FLOW NODES (IBOUND=0).



                       INITIAL HEAD FOR LAYER   1
 READING ON UNIT    8 WITH FORMAT: (18F10.2)           



                       INITIAL HEAD FOR LAYER   2
 READING ON UNIT    8 WITH FORMAT: (18F10.2)           



                       INITIAL HEAD FOR LAYER   3
 READING ON UNIT    8 WITH FORMAT: (18F10.2)           

 OUTPUT CONTROL IS SPECIFIED ONLY AT TIME STEPS FOR WHICH OUTPUT IS DESIRED
 HEADS WILL BE SAVED WITH FORMAT: (6G11.4)            
 HEAD PRINT FORMAT CODE IS  20    DRAWDOWN PRINT FORMAT CODE IS   0
 HEADS WILL BE SAVED ON UNIT    0    DRAWDOWNS WILL BE SAVED ON UNIT    0

 ZONE OPTION, INPUT READ FROM UNIT   39
     4 ZONE ARRAYS



             ZONE ARRAY: ZLAY1     
 READING ON UNIT   39 WITH FORMAT: (I1,17I2)           



             ZONE ARRAY: ZLAY2     
 READING ON UNIT   39 WITH FORMAT: (I1,17I2)           



             ZONE ARRAY: ZLAY3     
 READING ON UNIT   39 WITH FORMAT: (I1,17I2)           



             ZONE ARRAY: RCHETM    
 READING ON UNIT   39 WITH FORMAT: (I1,17I2)           

 HUF2 -- HYDROGEOLOGIC-UNIT FLOW PACKAGE, VERSION 7.0, 05/05/2005
 INPUT READ FROM UNIT 11

 # HUF file for Test Case 2 Variant 4
 #
 HEAD AT CELLS THAT CONVERT TO DRY=  -999.00    
 Hydrogeologic-Unit Flow Package Active with   5 units and  12 parameters
 HEADS IN HYDROGEOLOGIC UNITS WILL BE SAVED ON UNIT 90

 IOHUFFLWS NOT FOUND AND WILL BE SET TO BE ZERO

    12 Named Parameters     

   INTERPRETATION OF LAYER FLAGS:
 LAYER     LTHUF    LAYER TYPE     LAYWT WETTABILITY
 ---------------------------------------------------------------------------
    1         0      CONFINED         0  NON-WETTABLE
    2         0      CONFINED         0  NON-WETTABLE
    3         0      CONFINED         0  NON-WETTABLE

 WETTING CAPABILITY IS NOT ACTIVE IN ANY LAYER


 HUF7 -- HYDROGEOLOGIC-UNIT FLOW PACKAGE
 ---------------------------------------------------------------------------



            TOP ELEVATN: HGU1      
 READING ON UNIT   11 WITH FORMAT: (9F10.2)            

            1           2           3           4           5           6
            7           8           9          10          11          12
           13          14          15          16          17          18
 ........................................................................
   1    0.000       466.7       970.9       979.2       979.5       980.1    
        1025.       1124.       1184.       1186.       1187.       9999.    
        9999.       9999.       9999.       9999.       9999.       9999.    
   2    0.000       460.5       968.8       979.0       979.2       979.8    
        1015.       1103.       1171.       1186.       1187.       1189.    
        9999.       9999.       9999.       9999.       9999.       9999.    
   3    0.000       433.0       961.2       973.6       978.5       957.7    
        987.5       1089.       1180.       1187.       1187.       1190.    
        1192.       9999.       9999.       9999.       9999.       9999.    
   4    0.000       291.7       752.5       967.2       971.5       964.3    
        990.4       1083.       1177.       1177.       1160.       1192.    
        1194.       1195.       9999.       9999.       9999.       9999.    
   5    0.000       220.9       552.0       799.2       897.5       929.4    
        956.1       983.7       1078.       1148.       1154.       1194.    
        1195.       1196.       1197.       9999.       9999.       9999.    
   6    0.000       188.8       463.0       692.6       852.1       892.6    
        932.8       906.9       1008.       1148.       1201.       1196.    
        1196.       1198.       1198.       1198.       9999.       9999.    
   7    27.65       189.7       420.5       653.2       857.1       922.1    
        1015.       951.2       1024.       1184.       1260.       1242.    
        1215.       1201.       1200.       1199.       1197.       9999.    
   8    50.33       210.0       431.3       642.5       850.8       944.4    
        1014.       953.3       1037.       1233.       1337.       1346.    
        1257.       1205.       1204.       1201.       1197.       1100.    
   9    67.18       233.9       445.0       634.7       835.3       925.8    
        971.0       931.5       1050.       1276.       1407.       1450.    
        1357.       1210.       1209.       1205.       1177.       1100.    
  10    77.44       262.6       462.4       635.4       812.4       951.3    
        990.3       999.7       1108.       1286.       1395.       1453.    
        1425.       1277.       1214.       1202.       1159.       1100.    
  11    207.6       336.4       484.5       641.0       809.6       926.6    
        996.2       1046.       1130.       1312.       1441.       1457.    
        1448.       1316.       1217.       1205.       1157.       1100.    
  12    9999.       9999.       9999.       9999.       871.6       949.9    
        1018.       1063.       1037.       1312.       1460.       1460.    
        1479.       1376.       1285.       1218.       1165.       1100.    
  13    9999.       9999.       9999.       9999.       9999.       1000.    
        1063.       1124.       1185.       1337.       1483.       1514.    
        1515.       1419.       1315.       1229.       1182.       1154.    
  14    9999.       9999.       9999.       9999.       9999.       9999.    
        1118.       1183.       1225.       1283.       1375.       1405.    
        1388.       1333.       1276.       1216.       1193.       1178.    
  15    9999.       9999.       9999.       9999.       9999.       9999.    
        9999.       1239.       1241.       1243.       1283.       1304.    
        1287.       1219.       1241.       1207.       1193.       1189.    
  16    9999.       9999.       9999.       9999.       9999.       9999.    
        9999.       9999.       1242.       1242.       1256.       1263.    
        1249.       1206.       1216.       1197.       1193.       1192.    
  17    9999.       9999.       9999.       9999.       9999.       9999.    
        9999.       9999.       9999.       1242.       1247.       1247.    
        1239.       1221.       1209.       1196.       1194.       1194.    
  18    9999.       9999.       9999.       9999.       9999.       9999.    
        9999.       9999.       9999.       9999.       1245.       1242.    
        1235.       1223.       1208.       1195.       1195.       1194.    

    THICKNESS: HGU1       =   300.000    



            TOP ELEVATN: HGU2      
 READING ON UNIT   11 WITH FORMAT: (9F10.2)            

            1           2           3           4           5           6
            7           8           9          10          11          12
           13          14          15          16          17          18
 ........................................................................
   1   -300.0       166.7       670.9       679.2       679.5       680.1    
        725.0       823.7       884.3       885.8       886.5       0.000    
        0.000       0.000       0.000       0.000       0.000       0.000    
   2   -300.0       160.5       668.8       679.0       679.2       679.8    
        715.1       803.0       870.6       886.5       887.3       888.7    
        0.000       0.000       0.000       0.000       0.000       0.000    
   3   -300.0       132.9       661.2       673.6       678.5       657.7    
        687.5       788.8       879.7       886.8       887.4       890.0    
        891.8       0.000       0.000       0.000       0.000       0.000    
   4   -300.0      -8.310       452.5       667.2       671.5       664.3    
        690.4       782.6       876.5       877.2       859.7       892.4    
        893.5       894.9       0.000       0.000       0.000       0.000    
   5   -300.0      -79.14       252.0       499.1       597.5       629.4    
        656.1       683.7       777.5       847.7       854.3       894.2    
        895.1       896.3       897.3       0.000       0.000       0.000    
   6   -300.0      -111.2       163.0       392.6       552.1       592.6    
        632.8       606.9       707.6       847.7       901.2       895.8    
        896.4       897.9       898.3       898.3       0.000       0.000    
   7   -272.4      -110.3       120.5       353.2       557.1       622.1    
        714.7       651.2       723.8       884.0       959.7       942.4    
        915.4       900.6       900.0       898.8       897.3       0.000    
   8   -249.7      -90.01       131.3       342.5       550.8       644.4    
        714.5       653.3       736.8       933.0       1037.       1046.    
        956.8       905.0       903.7       900.9       897.3       800.0    
   9   -232.8      -66.07       145.0       334.7       535.3       625.8    
        671.0       631.5       749.6       975.6       1107.       1150.    
        1057.       910.0       909.1       904.7       876.9       800.0    
  10   -222.6      -37.41       162.4       335.4       512.4       651.3    
        690.3       699.7       807.8       986.3       1095.       1153.    
        1125.       976.8       914.3       902.2       859.1       800.0    
  11   -92.35       36.39       184.5       341.0       509.6       626.6    
        696.2       745.8       829.6       1012.       1141.       1157.    
        1148.       1016.       917.3       904.8       857.2       800.0    
  12    0.000       0.000       0.000       0.000       571.6       649.9    
        718.2       762.9       736.7       1012.       1160.       1160.    
        1179.       1076.       984.8       918.5       864.7       800.0    
  13    0.000       0.000       0.000       0.000       0.000       700.4    
        763.0       823.8       885.0       1037.       1183.       1214.    
        1215.       1119.       1015.       928.8       882.0       853.7    
  14    0.000       0.000       0.000       0.000       0.000       0.000    
        817.5       883.2       925.0       983.5       1075.       1105.    
        1088.       1033.       976.0       915.9       893.0       877.7    
  15    0.000       0.000       0.000       0.000       0.000       0.000    
        0.000       939.2       941.1       942.5       982.9       1004.    
        986.9       919.0       940.7       906.7       893.3       888.8    
  16    0.000       0.000       0.000       0.000       0.000       0.000    
        0.000       0.000       941.5       942.1       955.5       962.5    
        949.1       906.2       916.2       897.5       893.3       892.3    
  17    0.000       0.000       0.000       0.000       0.000       0.000    
        0.000       0.000       0.000       942.2       946.7       947.2    
        938.5       921.5       909.4       895.8       894.2       893.7    
  18    0.000       0.000       0.000       0.000       0.000       0.000    
        0.000       0.000       0.000       0.000       944.5       942.2    
        934.8       922.8       908.1       895.5       894.6       894.1    

    THICKNESS: HGU2       =   200.000    



            TOP ELEVATN: HGU3      
 READING ON UNIT   11 WITH FORMAT: (9F10.2)            

            1           2           3           4           5           6
            7           8           9          10          11          12
           13          14          15          16          17          18
 ........................................................................
   1   -500.0      -33.34       470.9       479.2       479.5       480.1    
        525.0       623.7       684.3       685.8       686.5       9999.    
        9999.       9999.       9999.       9999.       9999.       9999.    
   2   -500.0      -39.47       468.8       479.0       479.2       479.8    
        515.1       603.0       670.6       686.5       687.3       688.7    
        9999.       9999.       9999.       9999.       9999.       9999.    
   3   -500.0      -67.05       461.2       473.6       478.5       457.7    
        487.5       588.8       679.7       686.8       687.4       690.0    
        691.8       9999.       9999.       9999.       9999.       9999.    
   4   -500.0      -208.3       252.5       467.2       471.5       464.4    
        490.4       582.6       676.5       677.2       659.7       692.4    
        693.5       694.9       9999.       9999.       9999.       9999.    
   5   -500.0      -279.1       52.04       299.1       397.5       429.4    
        456.1       483.7       577.5       647.7       654.3       694.2    
        695.1       696.3       697.3       9999.       9999.       9999.    
   6   -500.0      -311.2      -37.00       192.6       352.1       392.6    
        432.8       406.9       507.6       647.7       701.2       695.8    
        696.4       697.9       698.3       698.3       9999.       9999.    
   7   -472.4      -310.3      -79.49       153.2       357.1       422.1    
        514.7       451.2       523.8       684.0       759.7       742.4    
        715.4       700.6       700.0       698.8       697.3       9999.    
   8   -449.7      -290.0      -68.66       142.5       350.8       444.4    
        514.5       453.3       536.8       733.0       837.0       846.4    
        756.8       705.0       703.7       700.9       697.3       600.0    
   9   -432.8      -266.1      -55.03       134.7       335.3       425.8    
        471.0       431.5       549.6       775.6       907.2       949.9    
        856.6       710.0       709.1       704.7       676.9       600.0    
  10   -422.6      -237.4      -37.62       135.4       312.4       451.3    
        490.3       499.7       607.8       786.3       895.3       953.2    
        924.8       776.8       714.3       702.2       659.1       600.0    
  11   -292.4      -163.6      -15.52       140.9       309.6       426.6    
        496.2       545.8       629.6       812.3       941.1       957.0    
        948.0       815.5       717.3       704.8       657.2       600.0    
  12    9999.       9999.       9999.       9999.       371.6       449.9    
        518.2       562.9       536.7       812.1       959.7       959.8    
        979.2       876.0       784.8       718.5       664.7       600.0    
  13    9999.       9999.       9999.       9999.       9999.       500.4    
        563.0       623.8       685.0       836.6       983.0       1014.    
        1015.       919.2       814.9       728.8       682.0       653.7    
  14    9999.       9999.       9999.       9999.       9999.       9999.    
        617.5       683.2       725.0       783.5       875.4       905.0    
        888.1       833.3       776.0       715.9       693.0       677.7    
  15    9999.       9999.       9999.       9999.       9999.       9999.    
        9999.       739.2       741.1       742.5       782.9       803.6    
        786.9       719.0       740.7       706.7       693.3       688.8    
  16    9999.       9999.       9999.       9999.       9999.       9999.    
        9999.       9999.       741.5       742.1       755.5       762.5    
        749.1       706.2       716.2       697.5       693.3       692.3    
  17    9999.       9999.       9999.       9999.       9999.       9999.    
        9999.       9999.       9999.       742.2       746.7       747.2    
        738.5       721.5       709.4       695.8       694.2       693.7    
  18    9999.       9999.       9999.       9999.       9999.       9999.    
        9999.       9999.       9999.       9999.       744.5       742.2    
        734.8       722.8       708.1       695.5       694.6       694.1    

    THICKNESS: HGU3       =   550.000    



            TOP ELEVATN: HGU4      
 READING ON UNIT   11 WITH FORMAT: (9F10.2)            

            1           2           3           4           5           6
            7           8           9          10          11          12
           13          14          15          16          17          18
 ........................................................................
   1   -1050.      -583.3      -79.11      -70.83      -70.52      -69.93    
       -25.00       73.69       134.3       135.8       136.5       0.000    
        0.000       0.000       0.000       0.000       0.000       0.000    
   2   -1050.      -589.5      -81.17      -70.98      -70.79      -70.23    
       -34.89       53.04       120.6       136.5       137.3       138.6    
        0.000       0.000       0.000       0.000       0.000       0.000    
   3   -1050.      -617.0      -88.76      -76.40      -71.45      -92.26    
       -62.53       38.84       129.7       136.8       137.4       140.1    
        141.8       0.000       0.000       0.000       0.000       0.000    
   4   -1050.      -758.3      -297.5      -82.78      -78.53      -85.65    
       -59.57       32.56       126.5       127.2       109.7       142.4    
        143.5       144.9       0.000       0.000       0.000       0.000    
   5   -1050.      -829.1      -498.0      -250.9      -152.5      -120.6    
       -93.93      -66.27       27.55       97.71       104.3       144.1    
        145.1       146.3       147.3       0.000       0.000       0.000    
   6   -1050.      -861.2      -587.0      -357.4      -197.9      -157.4    
       -117.2      -143.1      -42.37       97.73       151.1       145.8    
        146.4       147.9       148.3       148.3       0.000       0.000    
   7   -1022.      -860.3      -629.5      -396.8      -192.9      -127.9    
       -35.27      -98.84      -26.24       134.0       209.7       192.4    
        165.4       150.6       150.0       148.8       147.3       0.000    
   8   -999.7      -840.0      -618.7      -407.5      -199.2      -105.6    
       -35.54      -96.69      -13.20       183.1       287.0       296.4    
        206.8       155.1       153.7       150.9       147.3       50.00    
   9   -982.8      -816.1      -605.0      -415.3      -214.7      -124.2    
       -78.95      -118.5     -0.3900       225.6       357.2       399.9    
        306.6       159.9       159.1       154.7       126.9       50.00    
  10   -972.6      -787.4      -587.6      -414.6      -237.6      -98.69    
       -59.72      -50.27       57.81       236.3       345.4       403.2    
        374.8       226.8       164.3       152.2       109.1       50.00    
  11   -842.3      -713.6      -565.5      -409.0      -240.4      -123.4    
       -53.81      -4.200       79.56       262.3       391.1       407.0    
        398.0       265.5       167.3       154.8       107.2       50.00    
  12    0.000       0.000       0.000       0.000      -178.4      -100.1    
       -31.84       12.88      -13.27       262.1       409.7       409.8    
        429.2       326.0       234.8       168.5       114.7       50.00    
  13    0.000       0.000       0.000       0.000       0.000      -49.62    
        13.05       73.83       135.0       286.6       433.0       463.5    
        465.4       369.2       264.9       178.8       132.0       103.7    
  14    0.000       0.000       0.000       0.000       0.000       0.000    
        67.51       133.2       175.0       233.5       325.4       355.0    
        338.1       283.4       226.1       165.9       143.0       127.7    
  15    0.000       0.000       0.000       0.000       0.000       0.000    
        0.000       189.2       191.1       192.5       232.9       253.6    
        236.9       169.0       190.7       156.7       143.3       138.8    
  16    0.000       0.000       0.000       0.000       0.000       0.000    
        0.000       0.000       191.6       192.1       205.6       212.5    
        199.1       156.2       166.1       147.5       143.4       142.3    
  17    0.000       0.000       0.000       0.000       0.000       0.000    
        0.000       0.000       0.000       192.2       196.7       197.2    
        188.5       171.5       159.4       145.9       144.2       143.7    
  18    0.000       0.000       0.000       0.000       0.000       0.000    
        0.000       0.000       0.000       0.000       194.5       192.2    
        184.8       172.8       158.1       145.4       144.6       144.1    

    THICKNESS: HGU4       =   200.000    



            TOP ELEVATN: HGU5      
 READING ON UNIT   11 WITH FORMAT: (9F10.2)            

            1           2           3           4           5           6
            7           8           9          10          11          12
           13          14          15          16          17          18
 ........................................................................
   1   -1250.      -783.3      -279.1      -270.8      -270.5      -269.9    
       -225.0      -126.3      -65.72      -64.24      -63.49       9999.    
        9999.       9999.       9999.       9999.       9999.       9999.    
   2   -1250.      -789.5      -281.2      -271.0      -270.8      -270.2    
       -234.9      -147.0      -79.39      -63.51      -62.74      -61.35    
        9999.       9999.       9999.       9999.       9999.       9999.    
   3   -1250.      -817.0      -288.8      -276.4      -271.5      -292.3    
       -262.5      -161.2      -70.31      -63.22      -62.61      -59.95    
       -58.21       9999.       9999.       9999.       9999.       9999.    
   4   -1250.      -958.3      -497.5      -282.8      -278.5      -285.6    
       -259.6      -167.4      -73.46      -72.76      -90.34      -57.64    
       -56.46      -55.08       9999.       9999.       9999.       9999.    
   5   -1250.      -1029.      -698.0      -450.9      -352.5      -320.6    
       -293.9      -266.3      -172.4      -102.3      -95.67      -55.85    
       -54.91      -53.71      -52.71       9999.       9999.       9999.    
   6   -1250.      -1061.      -787.0      -557.4      -397.9      -357.4    
       -317.2      -343.1      -242.4      -102.3      -48.85      -54.23    
       -53.63      -52.12      -51.72      -51.66       9999.       9999.    
   7   -1222.      -1060.      -829.5      -596.8      -392.9      -327.9    
       -235.3      -298.8      -226.2      -66.04       9.680      -7.610    
       -34.60      -49.40      -49.97      -51.17      -52.67       9999.    
   8   -1200.      -1040.      -818.7      -607.5      -399.2      -305.6    
       -235.5      -296.7      -213.2      -16.95       87.05       96.38    
        6.780      -44.95      -46.28      -49.08      -52.70      -150.0    
   9   -1183.      -1016.      -805.0      -615.3      -414.7      -324.2    
       -279.0      -318.5      -200.4       25.58       157.2       199.9    
        106.6      -40.05      -40.89      -45.30      -73.06      -150.0    
  10   -1173.      -987.4      -787.6      -614.6      -437.6      -298.7    
       -259.7      -250.3      -142.2       36.30       145.4       203.2    
        174.8       26.80      -35.73      -47.82      -90.91      -150.0    
  11   -1042.      -913.6      -765.5      -609.0      -440.4      -323.4    
       -253.8      -204.2      -120.4       62.27       191.1       207.0    
        198.0       65.52      -32.70      -45.19      -92.85      -150.0    
  12    9999.       9999.       9999.       9999.      -378.4      -300.1    
       -231.8      -187.1      -213.3       62.10       209.7       209.8    
        229.2       126.0       34.80      -31.50      -85.29      -150.0    
  13    9999.       9999.       9999.       9999.       9999.      -249.6    
       -186.9      -126.2      -65.03       86.58       233.0       263.5    
        265.4       169.2       64.91      -21.19      -68.04      -96.34    
  14    9999.       9999.       9999.       9999.       9999.       9999.    
       -132.5      -66.83      -24.98       33.48       125.4       155.0    
        138.1       83.35       26.05      -34.14      -56.99      -72.33    
  15    9999.       9999.       9999.       9999.       9999.       9999.    
        9999.      -10.79      -8.930      -7.480       32.86       53.60    
        36.91      -31.00      -9.270      -43.32      -56.72      -61.24    
  16    9999.       9999.       9999.       9999.       9999.       9999.    
        9999.       9999.      -8.450      -7.940       5.550       12.52    
      -0.9000      -43.80      -33.85      -52.53      -56.65      -57.72    
  17    9999.       9999.       9999.       9999.       9999.       9999.    
        9999.       9999.       9999.      -7.780      -3.320      -2.750    
       -11.48      -28.52      -40.57      -54.15      -55.82      -56.34    
  18    9999.       9999.       9999.       9999.       9999.       9999.    
        9999.       9999.       9999.       9999.      -5.490      -7.840    
       -15.20      -27.25      -41.88      -54.55      -55.40      -55.90    

    THICKNESS: HGU5       =   1500.00    


   INTERPRETATION OF UNIT FLAGS:
     UNIT      HANI           VK/VANI
 ---------------------------------------------------------------------------
 HGU1       1.0000000        VERTICAL K
 HGU2       1.0000000        VERTICAL K
 HGU3       1.0000000        VERTICAL K
 HGU4       1.0000000        VERTICAL K
 HGU5       1.0000000        VERTICAL K

 PARAMETER NAME:HK1          TYPE:HK   UNITS:   5
 The parameter value from the package file is:  1.00000    
UNIT HGU1      CORRESPONDS TO UNIT NO.     1
                UNIT:  1   MULTIPLIER:NONE   ZONE:ZLAY1
                ZONE VALUES:    1
UNIT HGU2      CORRESPONDS TO UNIT NO.     2
                UNIT:  2   MULTIPLIER:NONE   ZONE:ZLAY1
                ZONE VALUES:    1
UNIT HGU3      CORRESPONDS TO UNIT NO.     3
                UNIT:  3   MULTIPLIER:NONE   ZONE:ZLAY2
                ZONE VALUES:    1
UNIT HGU4      CORRESPONDS TO UNIT NO.     4
                UNIT:  4   MULTIPLIER:NONE   ZONE:ZLAY2
                ZONE VALUES:    1
UNIT HGU5      CORRESPONDS TO UNIT NO.     5
                UNIT:  5   MULTIPLIER:NONE   ZONE:ZLAY3
                ZONE VALUES:    1

 PARAMETER NAME:HK2          TYPE:HK   UNITS:   5
 The parameter value from the package file is:  1.00000E-02
UNIT HGU1      CORRESPONDS TO UNIT NO.     1
                UNIT:  1   MULTIPLIER:NONE   ZONE:ZLAY1
                ZONE VALUES:    2
UNIT HGU2      CORRESPONDS TO UNIT NO.     2
                UNIT:  2   MULTIPLIER:NONE   ZONE:ZLAY1
                ZONE VALUES:    2
UNIT HGU3      CORRESPONDS TO UNIT NO.     3
                UNIT:  3   MULTIPLIER:NONE   ZONE:ZLAY2
                ZONE VALUES:    2
UNIT HGU4      CORRESPONDS TO UNIT NO.     4
                UNIT:  4   MULTIPLIER:NONE   ZONE:ZLAY2
                ZONE VALUES:    2
UNIT HGU5      CORRESPONDS TO UNIT NO.     5
                UNIT:  5   MULTIPLIER:NONE   ZONE:ZLAY3
                ZONE VALUES:    2

 PARAMETER NAME:HK3          TYPE:HK   UNITS:   5
 The parameter value from the package file is:  1.00000E-04
UNIT HGU1      CORRESPONDS TO UNIT NO.     1
                UNIT:  1   MULTIPLIER:NONE   ZONE:ZLAY1
                ZONE VALUES:    3
UNIT HGU2      CORRESPONDS TO UNIT NO.     2
                UNIT:  2   MULTIPLIER:NONE   ZONE:ZLAY1
                ZONE VALUES:    3
UNIT HGU3      CORRESPONDS TO UNIT NO.     3
                UNIT:  3   MULTIPLIER:NONE   ZONE:ZLAY2
                ZONE VALUES:    3
UNIT HGU4      CORRESPONDS TO UNIT NO.     4
                UNIT:  4   MULTIPLIER:NONE   ZONE:ZLAY2
                ZONE VALUES:    3
UNIT HGU5      CORRESPONDS TO UNIT NO.     5
                UNIT:  5   MULTIPLIER:NONE   ZONE:ZLAY3
                ZONE VALUES:    3

 PARAMETER NAME:HK4          TYPE:HK   UNITS:   5
 The parameter value from the package file is:  1.00000E-06
UNIT HGU1      CORRESPONDS TO UNIT NO.     1
                UNIT:  1   MULTIPLIER:NONE   ZONE:ZLAY1
                ZONE VALUES:    4
UNIT HGU2      CORRESPONDS TO UNIT NO.     2
                UNIT:  2   MULTIPLIER:NONE   ZONE:ZLAY1
                ZONE VALUES:    4
UNIT HGU3      CORRESPONDS TO UNIT NO.     3
                UNIT:  3   MULTIPLIER:NONE   ZONE:ZLAY2
                ZONE VALUES:    4
UNIT HGU4      CORRESPONDS TO UNIT NO.     4
                UNIT:  4   MULTIPLIER:NONE   ZONE:ZLAY2
                ZONE VALUES:    4
UNIT HGU5      CORRESPONDS TO UNIT NO.     5
                UNIT:  5   MULTIPLIER:NONE   ZONE:ZLAY3
                ZONE VALUES:    4

 PARAMETER NAME:VKA12_1      TYPE:VK   UNITS:   4
 The parameter value from the package file is:  0.25000    
UNIT HGU1      CORRESPONDS TO UNIT NO.     1
                UNIT:  1   MULTIPLIER:NONE   ZONE:ZLAY1
                ZONE VALUES:    1
UNIT HGU2      CORRESPONDS TO UNIT NO.     2
                UNIT:  2   MULTIPLIER:NONE   ZONE:ZLAY1
                ZONE VALUES:    1
UNIT HGU3      CORRESPONDS TO UNIT NO.     3
                UNIT:  3   MULTIPLIER:NONE   ZONE:ZLAY2
                ZONE VALUES:    1
UNIT HGU4      CORRESPONDS TO UNIT NO.     4
                UNIT:  4   MULTIPLIER:NONE   ZONE:ZLAY2
                ZONE VALUES:    1

 PARAMETER NAME:VKA12_2      TYPE:VK   UNITS:   4
 The parameter value from the package file is:  2.50000E-03
UNIT HGU1      CORRESPONDS TO UNIT NO.     1
                UNIT:  1   MULTIPLIER:NONE   ZONE:ZLAY1
                ZONE VALUES:    2
UNIT HGU2      CORRESPONDS TO UNIT NO.     2
                UNIT:  2   MULTIPLIER:NONE   ZONE:ZLAY1
                ZONE VALUES:    2
UNIT HGU3      CORRESPONDS TO UNIT NO.     3
                UNIT:  3   MULTIPLIER:NONE   ZONE:ZLAY2
                ZONE VALUES:    2
UNIT HGU4      CORRESPONDS TO UNIT NO.     4
                UNIT:  4   MULTIPLIER:NONE   ZONE:ZLAY2
                ZONE VALUES:    2

 PARAMETER NAME:VKA12_3      TYPE:VK   UNITS:   4
 The parameter value from the package file is:  2.50000E-05
UNIT HGU1      CORRESPONDS TO UNIT NO.     1
                UNIT:  1   MULTIPLIER:NONE   ZONE:ZLAY1
                ZONE VALUES:    3
UNIT HGU2      CORRESPONDS TO UNIT NO.     2
                UNIT:  2   MULTIPLIER:NONE   ZONE:ZLAY1
                ZONE VALUES:    3
UNIT HGU3      CORRESPONDS TO UNIT NO.     3
                UNIT:  3   MULTIPLIER:NONE   ZONE:ZLAY2
                ZONE VALUES:    3
UNIT HGU4      CORRESPONDS TO UNIT NO.     4
                UNIT:  4   MULTIPLIER:NONE   ZONE:ZLAY2
                ZONE VALUES:    3

 PARAMETER NAME:VKA12_4      TYPE:VK   UNITS:   4
 The parameter value from the package file is:  2.50000E-07
UNIT HGU1      CORRESPONDS TO UNIT NO.     1
                UNIT:  1   MULTIPLIER:NONE   ZONE:ZLAY1
                ZONE VALUES:    4
UNIT HGU2      CORRESPONDS TO UNIT NO.     2
                UNIT:  2   MULTIPLIER:NONE   ZONE:ZLAY1
                ZONE VALUES:    4
UNIT HGU3      CORRESPONDS TO UNIT NO.     3
                UNIT:  3   MULTIPLIER:NONE   ZONE:ZLAY2
                ZONE VALUES:    4
UNIT HGU4      CORRESPONDS TO UNIT NO.     4
                UNIT:  4   MULTIPLIER:NONE   ZONE:ZLAY2
                ZONE VALUES:    4

 PARAMETER NAME:VKA3_1       TYPE:VK   UNITS:   1
 The parameter value from the package file is:  1.00000    
UNIT HGU5      CORRESPONDS TO UNIT NO.     5
                UNIT:  5   MULTIPLIER:NONE   ZONE:ZLAY3
                ZONE VALUES:    1

 PARAMETER NAME:VKA3_2       TYPE:VK   UNITS:   1
 The parameter value from the package file is:  1.00000E-02
UNIT HGU5      CORRESPONDS TO UNIT NO.     5
                UNIT:  5   MULTIPLIER:NONE   ZONE:ZLAY3
                ZONE VALUES:    2

 PARAMETER NAME:VKA3_3       TYPE:VK   UNITS:   1
 The parameter value from the package file is:  1.00000E-04
UNIT HGU5      CORRESPONDS TO UNIT NO.     5
                UNIT:  5   MULTIPLIER:NONE   ZONE:ZLAY3
                ZONE VALUES:    3

 PARAMETER NAME:VKA3_4       TYPE:VK   UNITS:   1
 The parameter value from the package file is:  1.00000E-06
UNIT HGU5      CORRESPONDS TO UNIT NO.     5
                UNIT:  5   MULTIPLIER:NONE   ZONE:ZLAY3
                ZONE VALUES:    4

Reading PRINTCODE information
UNIT HGU2      CORRESPONDS TO UNIT NO.     2


PRINTCODE FLAGS ARE SET AS FOLLOWS
   UNIT       HK   HANI   VK    SS    SY
------------------------------------------
HGU1           0     0     0     0     0
HGU2          20    20    20     0     0
HGU3           0     0     0     0     0
HGU4           0     0     0     0     0
HGU5           0     0     0     0     0


   HYD. COND. ALONG ROWS FOR UNIT HGU2      


              HYD. COND. ALONG ROWS

            1           2           3           4           5           6
            7           8           9          10          11          12
           13          14          15          16          17          18
 ........................................................................
   1   1.0000E-02  1.0000E-04  1.0000E-02  1.0000      1.0000      1.0000    
       1.0000E-02  1.0000E-02  1.0000      1.0000      1.0000       0.000    
        0.000       0.000       0.000       0.000       0.000       0.000    
   2   1.0000E-02  1.0000E-04  1.0000E-02  1.0000      1.0000      1.0000    
       1.0000E-02  1.0000E-02  1.0000E-02  1.0000      1.0000      1.0000    
        0.000       0.000       0.000       0.000       0.000       0.000    
   3   1.0000E-02  1.0000E-04  1.0000E-02  1.0000E-02  1.0000      1.0000E-02
       1.0000E-02  1.0000E-04  1.0000E-02  1.0000      1.0000      1.0000    
       1.0000       0.000       0.000       0.000       0.000       0.000    
   4   1.0000E-02  1.0000E-04  1.0000E-04  1.0000E-02  1.0000E-02  1.0000E-02
       1.0000E-04  1.0000E-04  1.0000E-02  1.0000E-02  1.0000E-02  1.0000    
       1.0000      1.0000       0.000       0.000       0.000       0.000    
   5   1.0000E-02  1.0000E-04  1.0000E-04  1.0000E-04  1.0000E-04  1.0000E-04
       1.0000E-04  1.0000E-04  1.0000E-04  1.0000E-04  1.0000E-02  1.0000    
       1.0000      1.0000      1.0000       0.000       0.000       0.000    
   6   1.0000E-02  1.0000E-04  1.0000E-04  1.0000E-04  1.0000E-04  1.0000E-02
       1.0000E-02  1.0000E-02  1.0000E-04  1.0000E-04  1.0000E-02  1.0000    
       1.0000      1.0000      1.0000      1.0000       0.000       0.000    
   7   1.0000E-02  1.0000E-04  1.0000E-04  1.0000E-04  1.0000E-04  1.0000E-02
       1.0000      1.0000E-02  1.0000E-04  1.0000E-04  1.0000E-02  1.0000E-02
       1.0000E-02  1.0000      1.0000      1.0000      1.0000       0.000    
   8   1.0000E-02  1.0000E-04  1.0000E-04  1.0000E-04  1.0000E-04  1.0000E-02
       1.0000      1.0000E-02  1.0000E-04  1.0000E-04  1.0000E-02  1.0000E-02
       1.0000E-02  1.0000      1.0000      1.0000      1.0000      1.0000E-02
   9   1.0000E-02  1.0000E-04  1.0000E-04  1.0000E-04  1.0000E-04  1.0000E-02
       1.0000E-02  1.0000E-02  1.0000E-04  1.0000E-04  1.0000E-02  1.0000    
       1.0000E-02  1.0000      1.0000      1.0000      1.0000E-02  1.0000E-02
  10   1.0000E-02  1.0000E-04  1.0000E-04  1.0000E-04  1.0000E-04  1.0000E-04
       1.0000E-04  1.0000E-04  1.0000E-04  1.0000E-04  1.0000E-02  1.0000    
       1.0000E-02  1.0000E-02  1.0000      1.0000E-02  1.0000E-02  1.0000E-02
  11   1.0000E-04  1.0000E-04  1.0000E-04  1.0000E-04  1.0000E-04  1.0000E-04
       1.0000E-04  1.0000E-04  1.0000E-04  1.0000E-04  1.0000E-02  1.0000    
       1.0000E-02  1.0000E-02  1.0000      1.0000E-02  1.0000E-02  1.0000E-02
  12    0.000       0.000       0.000       0.000      1.0000E-04  1.0000E-04
       1.0000E-04  1.0000E-04  1.0000E-04  1.0000E-04  1.0000E-02  1.0000    
       1.0000E-02  1.0000E-02  1.0000E-02  1.0000E-02  1.0000E-02  1.0000E-02
  13    0.000       0.000       0.000       0.000       0.000      1.0000E-04
       1.0000E-04  1.0000E-04  1.0000E-04  1.0000E-04  1.0000E-02  1.0000E-02
       1.0000E-02  1.0000E-02  1.0000E-02  1.0000E-02  1.0000E-02  1.0000    
  14    0.000       0.000       0.000       0.000       0.000       0.000    
       1.0000E-04  1.0000E-04  1.0000E-04  1.0000E-04  1.0000E-04  1.0000E-04
       1.0000E-04  1.0000E-02  1.0000E-02  1.0000E-02  1.0000      1.0000E-02
  15    0.000       0.000       0.000       0.000       0.000       0.000    
        0.000      1.0000E-02  1.0000E-02  1.0000E-02  1.0000E-04  1.0000E-04
       1.0000E-04  1.0000E-04  1.0000E-02  1.0000E-02  1.0000      1.0000E-02
  16    0.000       0.000       0.000       0.000       0.000       0.000    
        0.000       0.000      1.0000      1.0000E-02  1.0000E-04  1.0000E-04
       1.0000E-04  1.0000E-04  1.0000E-04  1.0000E-02  1.0000      1.0000E-02
  17    0.000       0.000       0.000       0.000       0.000       0.000    
        0.000       0.000       0.000      1.0000E-02  1.0000E-04  1.0000E-04
       1.0000E-04  1.0000E-04  1.0000E-04  1.0000E-02  1.0000E-02  1.0000E-02
  18    0.000       0.000       0.000       0.000       0.000       0.000    
        0.000       0.000       0.000       0.000      1.0000E-04  1.0000E-04
       1.0000E-04  1.0000E-04  1.0000E-04  1.0000E-02  1.0000E-02  1.0000E-02


  HORIZ. ANI. (COL./ROW) FOR UNIT HGU2      

   HORIZ. ANI. (COL./ROW) =  1.000000    


     VERTICAL HYD. COND. FOR UNIT HGU2      


                VERTICAL HYD. COND.

            1           2           3           4           5           6
            7           8           9          10          11          12
           13          14          15          16          17          18
 ........................................................................
   1   2.5000E-03  2.5000E-05  2.5000E-03  0.2500      0.2500      0.2500    
       2.5000E-03  2.5000E-03  0.2500      0.2500      0.2500       0.000    
        0.000       0.000       0.000       0.000       0.000       0.000    
   2   2.5000E-03  2.5000E-05  2.5000E-03  0.2500      0.2500      0.2500    
       2.5000E-03  2.5000E-03  2.5000E-03  0.2500      0.2500      0.2500    
        0.000       0.000       0.000       0.000       0.000       0.000    
   3   2.5000E-03  2.5000E-05  2.5000E-03  2.5000E-03  0.2500      2.5000E-03
       2.5000E-03  2.5000E-05  2.5000E-03  0.2500      0.2500      0.2500    
       0.2500       0.000       0.000       0.000       0.000       0.000    
   4   2.5000E-03  2.5000E-05  2.5000E-05  2.5000E-03  2.5000E-03  2.5000E-03
       2.5000E-05  2.5000E-05  2.5000E-03  2.5000E-03  2.5000E-03  0.2500    
       0.2500      0.2500       0.000       0.000       0.000       0.000    
   5   2.5000E-03  2.5000E-05  2.5000E-05  2.5000E-05  2.5000E-05  2.5000E-05
       2.5000E-05  2.5000E-05  2.5000E-05  2.5000E-05  2.5000E-03  0.2500    
       0.2500      0.2500      0.2500       0.000       0.000       0.000    
   6   2.5000E-03  2.5000E-05  2.5000E-05  2.5000E-05  2.5000E-05  2.5000E-03
       2.5000E-03  2.5000E-03  2.5000E-05  2.5000E-05  2.5000E-03  0.2500    
       0.2500      0.2500      0.2500      0.2500       0.000       0.000    
   7   2.5000E-03  2.5000E-05  2.5000E-05  2.5000E-05  2.5000E-05  2.5000E-03
       0.2500      2.5000E-03  2.5000E-05  2.5000E-05  2.5000E-03  2.5000E-03
       2.5000E-03  0.2500      0.2500      0.2500      0.2500       0.000    
   8   2.5000E-03  2.5000E-05  2.5000E-05  2.5000E-05  2.5000E-05  2.5000E-03
       0.2500      2.5000E-03  2.5000E-05  2.5000E-05  2.5000E-03  2.5000E-03
       2.5000E-03  0.2500      0.2500      0.2500      0.2500      2.5000E-03
   9   2.5000E-03  2.5000E-05  2.5000E-05  2.5000E-05  2.5000E-05  2.5000E-03
       2.5000E-03  2.5000E-03  2.5000E-05  2.5000E-05  2.5000E-03  0.2500    
       2.5000E-03  0.2500      0.2500      0.2500      2.5000E-03  2.5000E-03
  10   2.5000E-03  2.5000E-05  2.5000E-05  2.5000E-05  2.5000E-05  2.5000E-05
       2.5000E-05  2.5000E-05  2.5000E-05  2.5000E-05  2.5000E-03  0.2500    
       2.5000E-03  2.5000E-03  0.2500      2.5000E-03  2.5000E-03  2.5000E-03
  11   2.5000E-05  2.5000E-05  2.5000E-05  2.5000E-05  2.5000E-05  2.5000E-05
       2.5000E-05  2.5000E-05  2.5000E-05  2.5000E-05  2.5000E-03  0.2500    
       2.5000E-03  2.5000E-03  0.2500      2.5000E-03  2.5000E-03  2.5000E-03
  12    0.000       0.000       0.000       0.000      2.5000E-05  2.5000E-05
       2.5000E-05  2.5000E-05  2.5000E-05  2.5000E-05  2.5000E-03  0.2500    
       2.5000E-03  2.5000E-03  2.5000E-03  2.5000E-03  2.5000E-03  2.5000E-03
  13    0.000       0.000       0.000       0.000       0.000      2.5000E-05
       2.5000E-05  2.5000E-05  2.5000E-05  2.5000E-05  2.5000E-03  2.5000E-03
       2.5000E-03  2.5000E-03  2.5000E-03  2.5000E-03  2.5000E-03  0.2500    
  14    0.000       0.000       0.000       0.000       0.000       0.000    
       2.5000E-05  2.5000E-05  2.5000E-05  2.5000E-05  2.5000E-05  2.5000E-05
       2.5000E-05  2.5000E-03  2.5000E-03  2.5000E-03  0.2500      2.5000E-03
  15    0.000       0.000       0.000       0.000       0.000       0.000    
        0.000      2.5000E-03  2.5000E-03  2.5000E-03  2.5000E-05  2.5000E-05
       2.5000E-05  2.5000E-05  2.5000E-03  2.5000E-03  0.2500      2.5000E-03
  16    0.000       0.000       0.000       0.000       0.000       0.000    
        0.000       0.000      0.2500      2.5000E-03  2.5000E-05  2.5000E-05
       2.5000E-05  2.5000E-05  2.5000E-05  2.5000E-03  0.2500      2.5000E-03
  17    0.000       0.000       0.000       0.000       0.000       0.000    
        0.000       0.000       0.000      2.5000E-03  2.5000E-05  2.5000E-05
       2.5000E-05  2.5000E-05  2.5000E-05  2.5000E-03  2.5000E-03  2.5000E-03
  18    0.000       0.000       0.000       0.000       0.000       0.000    
        0.000       0.000       0.000       0.000      2.5000E-05  2.5000E-05
       2.5000E-05  2.5000E-05  2.5000E-05  2.5000E-03  2.5000E-03  2.5000E-03

 WEL -- WELL PACKAGE, VERSION 7, 5/2/2005 INPUT READ FROM UNIT   12
 No named parameters
 MAXIMUM OF      3 ACTIVE WELLS AT ONE TIME


     0 Well parameters

 DRN -- DRAIN PACKAGE, VERSION 7, 5/2/2005 INPUT READ FROM UNIT   13
          1 Named Parameters              5 List entries
 MAXIMUM OF      5 ACTIVE DRAINS AT ONE TIME


     1 Drain parameters

 PARAMETER NAME:DRAIN        TYPE:DRN 
 Parameter value from package file is:   1.00000    
   NUMBER OF ENTRIES:      5

 DRAIN NO.  LAYER   ROW   COL     DRAIN EL.  STRESS FACTOR         
 ------------------------------------------------------------------
      1      1      7      6       400.0          1.0000    
      2      1     10     11       550.0          1.0000    
      3      1     14     14       1200.          1.0000    
      4      1     15     14       1200.          1.0000    
      5      1     16     14       1200.          1.0000    

 EVT -- EVAPOTRANSPIRATION PACKAGE, VERSION 7, 5/2/2005
         INPUT READ FROM UNIT   15
     1 Named Parameters     
 OPTION 1 -- EVAPOTRANSPIRATION FROM TOP LAYER


     1 Evapotranspiration parameters

 PARAMETER NAME:ETM          TYPE:EVT    CLUSTERS:   1
 Parameter value from package file is:   4.00000E-04
                MULTIPLIER ARRAY: NONE    ZONE ARRAY: RCHETM
                ZONE VALUES:    2

 GHB -- GENERAL-HEAD BOUNDARY PACKAGE, VERSION 7, 5/2/2005
         INPUT READ FROM UNIT   17
          1 Named Parameters              5 List entries
 MAXIMUM OF      5 ACTIVE GHB CELLS AT ONE TIME


     1 GHB parameters

 PARAMETER NAME:GHB          TYPE:GHB 
 Parameter value from package file is:   1.00000    
   NUMBER OF ENTRIES:      5

 BOUND. NO. LAYER   ROW   COL     STAGE    STRESS FACTOR         
 ----------------------------------------------------------------
      1      1      3      6       350.0          1.0000    
      2      1      3     11       500.0          1.0000    
      3      1      4     11       500.0          1.0000    
      4      1      5     11       500.0          1.0000    
      5      1     12      9      1000.0          1.0000    

 RCH -- RECHARGE PACKAGE, VERSION 7, 5/2/2005 INPUT READ FROM UNIT   18
     1 Named Parameters     
 OPTION 1 -- RECHARGE TO TOP LAYER


     1 Recharge parameters

 PARAMETER NAME:RCH          TYPE:RCH    CLUSTERS:   1
 Parameter value from package file is:   3.10000E-04
                MULTIPLIER ARRAY: NONE    ZONE ARRAY: RCHETM
                ZONE VALUES:    1

 PCG -- CONJUGATE-GRADIENT SOLUTION PACKAGE, VERSION 7, 5/2/2005
 MAXIMUM OF    250 CALLS OF SOLUTION ROUTINE
 MAXIMUM OF      8 INTERNAL ITERATIONS PER CALL TO SOLUTION ROUTINE
 MATRIX PRECONDITIONING TYPE :    1



                                    SOLUTION BY THE CONJUGATE-GRADIENT METHOD
                                   -------------------------------------------
                    MAXIMUM NUMBER OF CALLS TO PCG ROUTINE =      250
                        MAXIMUM ITERATIONS PER CALL TO PCG =        8
                               MATRIX PRECONDITIONING TYPE =        1
        RELAXATION FACTOR (ONLY USED WITH PRECOND. TYPE 1) =    0.10000E+01
 PARAMETER OF POLYNOMIAL PRECOND. = 2 (2) OR IS CALCULATED :        2
                         HEAD CHANGE CRITERION FOR CLOSURE =    0.10000E-03
                     RESIDUAL CHANGE CRITERION FOR CLOSURE =    0.80000E+02
            PCG HEAD AND RESIDUAL CHANGE PRINTOUT INTERVAL =      999
     PRINTING FROM SOLVER IS LIMITED(1) OR SUPPRESSED (>1) =        1
                            STEADY-STATE DAMPING PARAMETER =    0.10000E+01
                               TRANSIENT DAMPING PARAMETER =    0.10000E+01
1
                            STRESS PERIOD NO.    1, LENGTH =   86400.00    
                            -----------------------------------------------

                              NUMBER OF TIME STEPS =     1

                               MULTIPLIER FOR DELT =     1.000

                            INITIAL TIME STEP SIZE =   86400.00    

 WELL NO.  LAYER   ROW   COL   STRESS RATE         
 --------------------------------------------------
      1      1      9      7     -100.00    
      2      1      8     16      -200.0    
      3      1     11     13      -150.0    

      3 WELLS

 Parameter:  DRAIN
 DRAIN NO.  LAYER   ROW   COL     DRAIN EL.  CONDUCTANCE         
 ----------------------------------------------------------------
      1      1      7      6       400.0          1.0000    
      2      1     10     11       550.0          1.0000    
      3      1     14     14       1200.          1.0000    
      4      1     15     14       1200.          1.0000    
      5      1     16     14       1200.          1.0000    

      5 DRAINS

               ET SURFACE =  1000.000    



 EVTR array defined by the following parameters:
 Parameter:  ETM


            EVAPOTRANSPIRATION RATE

            1           2           3           4           5           6
            7           8           9          10          11          12
           13          14          15          16          17          18
 ........................................................................
   1    0.000       0.000       0.000       0.000       0.000       0.000    
        0.000       0.000       0.000       0.000       0.000       0.000    
        0.000       0.000       0.000       0.000       0.000       0.000    
   2    0.000       0.000       0.000       0.000       0.000       0.000    
        0.000       0.000       0.000       0.000       0.000       0.000    
        0.000       0.000       0.000       0.000       0.000       0.000    
   3    0.000       0.000       0.000       0.000       0.000       0.000    
        0.000       0.000       0.000       0.000       0.000       0.000    
        0.000       0.000       0.000       0.000       0.000       0.000    
   4    0.000       0.000       0.000       0.000       0.000       0.000    
        0.000       0.000       0.000       0.000       0.000       0.000    
        0.000       0.000       0.000       0.000       0.000       0.000    
   5    0.000       0.000       0.000       0.000       0.000       0.000    
        0.000       0.000       0.000       0.000       0.000       0.000    
        0.000       0.000       0.000       0.000       0.000       0.000    
   6    0.000       0.000       0.000       0.000       0.000      4.0000E-04
       4.0000E-04  4.0000E-04   0.000       0.000       0.000       0.000    
        0.000       0.000       0.000       0.000       0.000       0.000    
   7    0.000       0.000       0.000       0.000       0.000      4.0000E-04
       4.0000E-04  4.0000E-04   0.000       0.000       0.000       0.000    
        0.000       0.000       0.000       0.000       0.000       0.000    
   8    0.000       0.000       0.000       0.000       0.000      4.0000E-04
       4.0000E-04  4.0000E-04   0.000       0.000       0.000       0.000    
        0.000       0.000       0.000       0.000       0.000       0.000    
   9    0.000       0.000       0.000       0.000       0.000      4.0000E-04
       4.0000E-04  4.0000E-04   0.000       0.000       0.000       0.000    
        0.000       0.000       0.000       0.000       0.000       0.000    
  10    0.000       0.000       0.000       0.000       0.000       0.000    
        0.000       0.000       0.000       0.000       0.000       0.000    
        0.000       0.000       0.000       0.000       0.000       0.000    
  11    0.000       0.000       0.000       0.000       0.000       0.000    
        0.000       0.000       0.000       0.000       0.000       0.000    
        0.000       0.000       0.000       0.000       0.000       0.000    
  12    0.000       0.000       0.000       0.000       0.000       0.000    
        0.000       0.000       0.000       0.000       0.000       0.000    
        0.000       0.000       0.000       0.000       0.000       0.000    
  13    0.000       0.000       0.000       0.000       0.000       0.000    
        0.000       0.000       0.000       0.000       0.000       0.000    
        0.000       0.000       0.000       0.000       0.000       0.000    
  14    0.000       0.000       0.000       0.000       0.000       0.000    
        0.000       0.000       0.000       0.000       0.000       0.000    
        0.000       0.000       0.000       0.000       0.000       0.000    
  15    0.000       0.000       0.000       0.000       0.000       0.000    
        0.000       0.000       0.000       0.000       0.000       0.000    
        0.000       0.000       0.000       0.000       0.000       0.000    
  16    0.000       0.000       0.000       0.000       0.000       0.000    
        0.000       0.000       0.000       0.000       0.000       0.000    
        0.000       0.000       0.000       0.000       0.000       0.000    
  17    0.000       0.000       0.000       0.000       0.000       0.000    
        0.000       0.000       0.000       0.000       0.000       0.000    
        0.000       0.000       0.000       0.000       0.000       0.000    
  18    0.000       0.000       0.000       0.000       0.000       0.000    
        0.000       0.000       0.000       0.000       0.000       0.000    
        0.000       0.000       0.000       0.000       0.000       0.000    

         EXTINCTION DEPTH =   950.000    

 Parameter:  GHB
 BOUND. NO. LAYER   ROW   COL     STAGE      CONDUCTANCE         
 ----------------------------------------------------------------
      1      1      3      6       350.0          1.0000    
      2      1      3     11       500.0          1.0000    
      3      1      4     11       500.0          1.0000    
      4      1      5     11       500.0          1.0000    
      5      1     12      9      1000.0          1.0000    

      5 GHB CELLS



 RECH array defined by the following parameters:
 Parameter:  RCH


                           RECHARGE

            1           2           3           4           5           6
            7           8           9          10          11          12
           13          14          15          16          17          18
 ........................................................................
   1    0.000       0.000       0.000       0.000       0.000       0.000    
        0.000       0.000       0.000       0.000       0.000       0.000    
        0.000       0.000       0.000       0.000       0.000       0.000    
   2    0.000       0.000       0.000       0.000       0.000       0.000    
        0.000       0.000       0.000       0.000       0.000       0.000    
        0.000       0.000       0.000       0.000       0.000       0.000    
   3    0.000       0.000       0.000       0.000       0.000       0.000    
        0.000       0.000       0.000       0.000       0.000       0.000    
        0.000       0.000       0.000       0.000       0.000       0.000    
   4    0.000       0.000       0.000       0.000       0.000       0.000    
        0.000       0.000       0.000       0.000       0.000       0.000    
        0.000       0.000       0.000       0.000       0.000       0.000    
   5    0.000       0.000       0.000       0.000       0.000       0.000    
        0.000       0.000       0.000       0.000       0.000       0.000    
        0.000       0.000       0.000       0.000       0.000       0.000    
   6    0.000       0.000       0.000       0.000       0.000       0.000    
        0.000       0.000       0.000       0.000       0.000       0.000    
        0.000       0.000       0.000       0.000       0.000       0.000    
   7    0.000       0.000       0.000       0.000       0.000       0.000    
        0.000       0.000       0.000       0.000       0.000       0.000    
        0.000       0.000       0.000       0.000       0.000       0.000    
   8    0.000       0.000       0.000       0.000       0.000       0.000    
        0.000       0.000       0.000       0.000       0.000       0.000    
        0.000       0.000       0.000       0.000       0.000       0.000    
   9    0.000       0.000       0.000       0.000       0.000       0.000    
        0.000       0.000       0.000       0.000       0.000      3.1000E-04
       3.1000E-04  3.1000E-04   0.000       0.000       0.000       0.000    
  10    0.000       0.000       0.000       0.000       0.000       0.000    
        0.000       0.000       0.000       0.000       0.000      3.1000E-04
       3.1000E-04  3.1000E-04  3.1000E-04   0.000       0.000       0.000    
  11    0.000       0.000       0.000       0.000       0.000       0.000    
        0.000       0.000       0.000       0.000       0.000      3.1000E-04
       3.1000E-04  3.1000E-04  3.1000E-04   0.000       0.000       0.000    
  12    0.000       0.000       0.000       0.000       0.000       0.000    
        0.000       0.000       0.000       0.000       0.000      3.1000E-04
       3.1000E-04  3.1000E-04  3.1000E-04   0.000       0.000       0.000    
  13    0.000       0.000       0.000       0.000       0.000       0.000    
        0.000       0.000       0.000       0.000       0.000      3.1000E-04
       3.1000E-04  3.1000E-04  3.1000E-04   0.000       0.000       0.000    
  14    0.000       0.000       0.000       0.000       0.000       0.000    
        0.000       0.000       0.000       0.000       0.000       0.000    
        0.000       0.000       0.000       0.000       0.000       0.000    
  15    0.000       0.000       0.000       0.000       0.000       0.000    
        0.000       0.000       0.000       0.000       0.000       0.000    
        0.000       0.000       0.000       0.000       0.000       0.000    
  16    0.000       0.000       0.000       0.000       0.000       0.000    
        0.000       0.000       0.000       0.000       0.000       0.000    
        0.000       0.000       0.000       0.000       0.000       0.000    
  17    0.000       0.000       0.000       0.000       0.000       0.000    
        0.000       0.000       0.000       0.000       0.000       0.000    
        0.000       0.000       0.000       0.000       0.000       0.000    
  18    0.000       0.000       0.000       0.000       0.000       0.000    
        0.000       0.000       0.000       0.000       0.000       0.000    
        0.000       0.000       0.000       0.000       0.000       0.000    
 
 SOLVING FOR HEAD 


    32 CALLS TO PCG ROUTINE FOR TIME STEP   1 IN STRESS PERIOD    1
   242 TOTAL ITERATIONS

 OUTPUT CONTROL FOR STRESS PERIOD    1   TIME STEP    1
    PRINT HEAD FOR ALL LAYERS
    SAVE HEAD FOR ALL LAYERS
1
              HEAD IN LAYER   1 AT END OF TIME STEP   1 IN STRESS PERIOD    1
  ---------------------------------------------------------------------------

            1           2           3           4           5           6
            7           8           9          10          11          12
           13          14          15          16          17          18
 ........................................................................
   1    0.000       466.7       970.9       979.2       979.5       980.1    
        1025.       1124.       1184.       1186.       1187.       9999.    
        9999.       9999.       9999.       9999.       9999.       9999.    
   2    0.000       460.5       968.8       979.0       979.2       979.8    
        1015.       1103.       1171.       1186.       1187.       1189.    
        9999.       9999.       9999.       9999.       9999.       9999.    
   3    0.000       433.0       961.2       973.6       978.6       957.7    
        987.5       1089.       1180.       1187.       1187.       1190.    
        1192.       9999.       9999.       9999.       9999.       9999.    
   4    0.000       291.7       752.5       967.2       971.5       964.4    
        990.4       1083.       1177.       1177.       1160.       1192.    
        1194.       1195.       9999.       9999.       9999.       9999.    
   5    0.000       220.9       552.0       799.2       897.5       929.4    
        956.1       983.7       1078.       1148.       1154.       1194.    
        1195.       1196.       1197.       9999.       9999.       9999.    
   6    0.000       188.8       463.0       692.6       852.1       892.6    
        932.8       906.9       1008.       1148.       1201.       1196.    
        1196.       1198.       1198.       1198.       9999.       9999.    
   7    27.66       189.7       420.5       653.2       857.1       922.1    
        1015.       951.2       1024.       1184.       1260.       1242.    
        1215.       1201.       1200.       1199.       1197.       9999.    
   8    50.33       210.0       431.3       642.5       850.8       944.4    
        1014.       953.3       1037.       1233.       1337.       1346.    
        1257.       1205.       1204.       1201.       1197.       1100.    
   9    67.19       233.9       445.0       634.7       835.3       925.8    
        971.1       931.5       1050.       1276.       1407.       1450.    
        1357.       1210.       1209.       1205.       1177.       1100.    
  10    77.44       262.6       462.4       635.4       812.4       951.3    
        990.3       999.7       1108.       1286.       1395.       1453.    
        1425.       1277.       1214.       1202.       1159.       1100.    
  11    207.7       336.4       484.5       641.0       809.6       926.6    
        996.2       1046.       1130.       1312.       1441.       1457.    
        1448.       1316.       1217.       1205.       1157.       1100.    
  12    9999.       9999.       9999.       9999.       871.6       949.9    
        1018.       1063.       1037.       1312.       1460.       1460.    
        1479.       1376.       1285.       1219.       1165.       1100.    
  13    9999.       9999.       9999.       9999.       9999.       1000.    
        1063.       1124.       1185.       1337.       1483.       1514.    
        1515.       1419.       1315.       1229.       1182.       1154.    
  14    9999.       9999.       9999.       9999.       9999.       9999.    
        1118.       1183.       1225.       1283.       1375.       1405.    
        1388.       1333.       1276.       1216.       1193.       1178.    
  15    9999.       9999.       9999.       9999.       9999.       9999.    
        9999.       1239.       1241.       1243.       1283.       1304.    
        1287.       1219.       1241.       1207.       1193.       1189.    
  16    9999.       9999.       9999.       9999.       9999.       9999.    
        9999.       9999.       1242.       1242.       1256.       1263.    
        1249.       1206.       1216.       1197.       1193.       1192.    
  17    9999.       9999.       9999.       9999.       9999.       9999.    
        9999.       9999.       9999.       1242.       1247.       1247.    
        1239.       1221.       1209.       1196.       1194.       1194.    
  18    9999.       9999.       9999.       9999.       9999.       9999.    
        9999.       9999.       9999.       9999.       1245.       1242.    
        1235.       1223.       1208.       1195.       1195.       1194.    
1
              HEAD IN LAYER   2 AT END OF TIME STEP   1 IN STRESS PERIOD    1
  ---------------------------------------------------------------------------

            1           2           3           4           5           6
            7           8           9          10          11          12
           13          14          15          16          17          18
 ........................................................................
   1    0.000       428.8       825.0       943.4       974.5       992.1    
        1031.       1102.       1152.       1170.       1178.       9999.    
        9999.       9999.       9999.       9999.       9999.       9999.    
   2    0.000       419.9       815.3       933.3       970.6       985.0    
        1008.       1076.       1141.       1171.       1183.       1186.    
        9999.       9999.       9999.       9999.       9999.       9999.    
   3    0.000       391.2       781.6       913.5       957.1       969.6    
        988.6       1055.       1130.       1165.       1186.       1188.    
        1190.       9999.       9999.       9999.       9999.       9999.    
   4    0.000       317.5       654.0       864.4       932.4       953.1    
        981.4       1035.       1096.       1141.       1163.       1184.    
        1192.       1193.       9999.       9999.       9999.       9999.    
   5    0.000       258.3       536.9       756.1       878.4       934.5    
        962.1       976.6       1021.       1099.       1144.       1176.    
        1192.       1191.       1191.       9999.       9999.       9999.    
   6    0.000       225.9       461.9       694.2       868.2       942.6    
        971.9       956.3       992.8       1085.       1147.       1169.    
        1186.       1180.       1184.       1184.       9999.       9999.    
   7    87.04       229.0       389.9       654.8       905.0       974.8    
        1018.       998.7       1016.       1096.       1162.       1175.    
        1169.       1151.       1156.       1156.       1148.       9999.    
   8    139.6       260.6       435.5       642.4       868.6       985.2    
        1017.       993.5       1020.       1128.       1239.       1279.    
        1231.       1200.       1196.       1185.       1153.       1100.    
   9    177.9       297.5       454.7       624.1       851.2       983.2    
        1015.       988.1       1029.       1182.       1304.       1346.    
        1281.       1214.       1211.       1204.       1161.       1100.    
  10    212.0       330.2       474.6       630.5       822.5       990.8    
        1004.       997.6       1089.       1257.       1363.       1390.    
        1328.       1238.       1214.       1209.       1162.       1100.    
  11    279.4       366.6       492.1       637.2       802.4       926.2    
        998.4       1043.       1138.       1287.       1381.       1399.    
        1354.       1260.       1217.       1211.       1158.       1100.    
  12    9999.       9999.       9999.       9999.       862.6       940.3    
        1019.       1078.       1143.       1289.       1395.       1412.    
        1384.       1301.       1251.       1213.       1165.       1100.    
  13    9999.       9999.       9999.       9999.       9999.       993.6    
        1059.       1125.       1195.       1303.       1407.       1439.    
        1424.       1338.       1266.       1220.       1184.       1155.    
  14    9999.       9999.       9999.       9999.       9999.       9999.    
        1111.       1168.       1220.       1280.       1343.       1368.    
        1355.       1310.       1254.       1205.       1193.       1181.    
  15    9999.       9999.       9999.       9999.       9999.       9999.    
        9999.       1214.       1233.       1252.       1279.       1291.    
        1280.       1250.       1229.       1203.       1194.       1188.    
  16    9999.       9999.       9999.       9999.       9999.       9999.    
        9999.       9999.       1240.       1246.       1256.       1260.    
        1250.       1230.       1219.       1203.       1196.       1193.    
  17    9999.       9999.       9999.       9999.       9999.       9999.    
        9999.       9999.       9999.       1245.       1248.       1247.    
        1239.       1226.       1215.       1202.       1197.       1194.    
  18    9999.       9999.       9999.       9999.       9999.       9999.    
        9999.       9999.       9999.       9999.       1245.       1242.    
        1235.       1225.       1213.       1202.       1197.       1194.    
1
              HEAD IN LAYER   3 AT END OF TIME STEP   1 IN STRESS PERIOD    1
  ---------------------------------------------------------------------------

            1           2           3           4           5           6
            7           8           9          10          11          12
           13          14          15          16          17          18
 ........................................................................
   1    0.000       322.8       767.7       962.6       980.1       999.9    
        1032.       1085.       1127.       1154.       1169.       9999.    
        9999.       9999.       9999.       9999.       9999.       9999.    
   2    0.000       309.4       714.6       915.9       981.8       992.8    
        1012.       1061.       1117.       1155.       1178.       1183.    
        9999.       9999.       9999.       9999.       9999.       9999.    
   3    0.000       286.8       668.0       860.1       951.0       983.0    
        1000.       1049.       1100.       1140.       1174.       1186.    
        1189.       9999.       9999.       9999.       9999.       9999.    
   4    0.000       245.8       588.0       801.0       905.4       956.8    
        988.1       1028.       1074.       1117.       1149.       1176.    
        1190.       1191.       9999.       9999.       9999.       9999.    
   5    0.000       209.1       508.0       725.8       860.1       931.9    
        971.3       998.0       1037.       1086.       1122.       1150.    
        1178.       1190.       1190.       9999.       9999.       9999.    
   6    0.000       191.3       452.7       674.5       841.4       934.3    
        985.1       997.3       1023.       1061.       1087.       1107.    
        1134.       1146.       1149.       1138.       9999.       9999.    
   7    94.93       222.9       418.7       639.2       844.5       962.4    
        1024.       1031.       1039.       1046.       1053.       1060.    
        1067.       1075.       1081.       1087.       1092.       9999.    
   8    192.6       261.9       416.4       608.8       816.1       959.7    
        1022.       1019.       1038.       1065.       1127.       1187.    
        1184.       1169.       1161.       1141.       1096.       1100.    
   9    256.3       329.7       453.7       552.6       748.5       925.7    
        999.0       1015.       1065.       1131.       1195.       1257.    
        1261.       1229.       1211.       1188.       1130.       1100.    
  10    298.7       368.6       478.9       598.9       719.1       880.7    
        979.8       1027.       1114.       1229.       1296.       1318.    
        1284.       1246.       1218.       1195.       1146.       1100.    
  11    329.1       392.6       497.3       623.9       766.6       858.2    
        964.0       1057.       1181.       1324.       1354.       1354.    
        1316.       1267.       1229.       1199.       1149.       1100.    
  12    9999.       9999.       9999.       9999.       841.3       901.9    
        997.4       1084.       1175.       1303.       1367.       1363.    
        1335.       1292.       1256.       1205.       1145.       1100.    
  13    9999.       9999.       9999.       9999.       9999.       978.6    
        1045.       1116.       1196.       1288.       1360.       1378.    
        1359.       1308.       1258.       1214.       1173.       1144.    
  14    9999.       9999.       9999.       9999.       9999.       9999.    
        1103.       1154.       1208.       1265.       1307.       1322.    
        1312.       1280.       1244.       1211.       1192.       1180.    
  15    9999.       9999.       9999.       9999.       9999.       9999.    
        9999.       1197.       1228.       1245.       1258.       1262.    
        1255.       1240.       1224.       1207.       1197.       1192.    
  16    9999.       9999.       9999.       9999.       9999.       9999.    
        9999.       9999.       1237.       1245.       1251.       1252.    
        1246.       1233.       1220.       1208.       1199.       1195.    
  17    9999.       9999.       9999.       9999.       9999.       9999.    
        9999.       9999.       9999.       1246.       1247.       1245.    
        1239.       1229.       1218.       1207.       1200.       1196.    
  18    9999.       9999.       9999.       9999.       9999.       9999.    
        9999.       9999.       9999.       9999.       1244.       1242.    
        1236.       1227.       1216.       1207.       1200.       1196.    
1
  VOLUMETRIC BUDGET FOR ENTIRE MODEL AT END OF TIME STEP    1, STRESS PERIOD   1
  ------------------------------------------------------------------------------

     CUMULATIVE VOLUMES      L**3       RATES FOR THIS TIME STEP      L**3/T
     ------------------                 ------------------------

           IN:                                      IN:
           ---                                      ---
             STORAGE =           0.0000               STORAGE =           0.0000
       CONSTANT HEAD =   500441632.0000         CONSTANT HEAD =        5792.1484
               WELLS =           0.0000                 WELLS =           0.0000
              DRAINS =           0.0000                DRAINS =           0.0000
                  ET =           0.0000                    ET =           0.0000
     HEAD DEP BOUNDS =           0.0000       HEAD DEP BOUNDS =           0.0000
            RECHARGE =  1145016064.0000              RECHARGE =       13252.5000

            TOTAL IN =  1645457664.0000              TOTAL IN =       19044.6484

          OUT:                                     OUT:
          ----                                     ----
             STORAGE =           0.0000               STORAGE =           0.0000
       CONSTANT HEAD =   367719680.0000         CONSTANT HEAD =        4256.0146
               WELLS =    38880000.0000                 WELLS =         450.0000
              DRAINS =   131848360.0000                DRAINS =        1526.0227
                  ET =   878410944.0000                    ET =       10166.7930
     HEAD DEP BOUNDS =   228600464.0000       HEAD DEP BOUNDS =        2645.8386
            RECHARGE =           0.0000              RECHARGE =           0.0000

           TOTAL OUT =  1645459456.0000             TOTAL OUT =       19044.6680

            IN - OUT =       -1792.0000              IN - OUT =      -1.9531E-02

 PERCENT DISCREPANCY =          -0.00     PERCENT DISCREPANCY =          -0.00






         TIME SUMMARY AT END OF TIME STEP    1 IN STRESS PERIOD    1
                    SECONDS     MINUTES      HOURS       DAYS        YEARS
                    -----------------------------------------------------------
   TIME STEP LENGTH 7.46496E+09 1.24416E+08 2.07360E+06  86400.      236.55    
 STRESS PERIOD TIME 7.46496E+09 1.24416E+08 2.07360E+06  86400.      236.55    
         TOTAL TIME 7.46496E+09 1.24416E+08 2.07360E+06  86400.      236.55    
1
1
  HEAD AT END OF TIME STEP  1 IN STRESS PERIOD  1
  IN HYDROGEOLOGIC UNIT  1 WITH NAME HGU1      
  -----------------------------------------------------------------------

            1           2           3           4           5           6
            7           8           9          10          11          12
           13          14          15          16          17          18
 ........................................................................
   1    0.000       472.7       971.3       979.2       979.5       980.1    
        1025.       1124.       1184.       1186.       1187.       9999.    
        9999.       9999.       9999.       9999.       9999.       9999.    
   2    0.000       467.0       969.2       979.0       979.2       979.8    
        1015.       1103.       1171.       1186.       1187.       1189.    
        9999.       9999.       9999.       9999.       9999.       9999.    
   3    0.000       439.6       961.7       973.8       978.6       957.7    
        987.5       1089.       1180.       1187.       1187.       1190.    
        1192.       9999.       9999.       9999.       9999.       9999.    
   4    0.000       287.6       768.3       967.5       971.6       964.4    
        990.5       1083.       1177.       1177.       1160.       1192.    
        1194.       1195.       9999.       9999.       9999.       9999.    
   5    0.000       214.9       554.5       806.0       900.6       928.6    
        955.1       984.9       1087.       1148.       1154.       1194.    
        1195.       1196.       1197.       9999.       9999.       9999.    
   6    0.000       182.9       463.2       692.3       849.5       884.6    
        926.5       899.0       1010.       1148.       1201.       1196.    
        1196.       1198.       1198.       1198.       9999.       9999.    
   7    27.50       183.4       425.4       653.2       849.4       913.7    
        1014.       943.6       1025.       1184.       1260.       1243.    
        1216.       1201.       1200.       1199.       1197.       9999.    
   8    50.10       201.9       430.7       642.5       847.9       937.9    
        1014.       946.9       1040.       1233.       1337.       1347.    
        1261.       1205.       1204.       1201.       1197.       1100.    
   9    66.89       223.8       443.4       636.5       832.7       916.6    
        953.9       922.4       1053.       1276.       1407.       1450.    
        1357.       1210.       1209.       1205.       1177.       1100.    
  10    77.08       251.8       460.4       636.2       810.8       935.7    
        984.8       1001.       1111.       1291.       1395.       1453.    
        1425.       1283.       1214.       1201.       1159.       1100.    
  11    196.2       331.6       483.3       641.5       810.8       926.7    
        995.8       1046.       1128.       1316.       1441.       1457.    
[...]
        1393.       1333.       1276.       1218.       1193.       1177.    
  15    9999.       9999.       9999.       9999.       9999.       9999.    
        9999.       1239.       1241.       1242.       1283.       1306.    
        1288.       1214.       1241.       1207.       1193.       1189.    
  16    9999.       9999.       9999.       9999.       9999.       9999.    
        9999.       9999.       1242.       1242.       1255.       1263.    
        1249.       1202.       1216.       1197.       1193.       1192.    
  17    9999.       9999.       9999.       9999.       9999.       9999.    
        9999.       9999.       9999.       1242.       1247.       1247.    
        1238.       1221.       1209.       1196.       1194.       1194.    
  18    9999.       9999.       9999.       9999.       9999.       9999.    
        9999.       9999.       9999.       9999.       1244.       1242.    
        1235.       1222.       1207.       1195.       1195.       1194.    

 HEAD IN HYDROGEOLOGIC UNITS WILL BE SAVED ON UNIT   90 AT END OF TIME STEP  1, STRESS PERIOD  1
1
  HEAD AT END OF TIME STEP  1 IN STRESS PERIOD  1
  IN HYDROGEOLOGIC UNIT  2 WITH NAME HGU2      
  -----------------------------------------------------------------------

            1           2           3           4           5           6
            7           8           9          10          11          12
           13          14          15          16          17          18
 ........................................................................
   1    0.000       457.6       970.3       979.2       979.5       980.1    
        1025.       1124.       1184.       1186.       1187.       9999.    
        9999.       9999.       9999.       9999.       9999.       9999.    
   2    0.000       450.8       968.2       979.0       979.2       979.8    
        1015.       1103.       1171.       1186.       1187.       1189.    
        9999.       9999.       9999.       9999.       9999.       9999.    
   3    0.000       422.9       960.5       973.4       978.6       957.8    
        987.5       1089.       1180.       1187.       1187.       1190.    
        1192.       9999.       9999.       9999.       9999.       9999.    
   4    0.000       297.9       728.9       966.8       971.3       964.3    
        990.4       1082.       1177.       1177.       1160.       1192.    
        1194.       1195.       9999.       9999.       9999.       9999.    
   5    0.000       229.9       548.4       788.8       892.9       930.6    
        957.5       982.0       1064.       1148.       1154.       1194.    
        1195.       1196.       1197.       9999.       9999.       9999.    
   6    0.000       197.7       462.7       693.0       856.0       904.6    
        942.2       918.8       1004.       1147.       1201.       1196.    
        1196.       1198.       1198.       1198.       9999.       9999.    
   7    27.89       199.1       413.2       653.2       868.6       934.8    
        1016.       962.6       1022.       1184.       1260.       1242.    
        1215.       1200.       1200.       1199.       1197.       9999.    
   8    50.69       222.1       432.3       642.5       855.1       954.2    
        1015.       963.0       1033.       1233.       1337.       1346.    
        1251.       1205.       1204.       1201.       1197.       1100.    
   9    67.63       249.2       447.3       632.2       839.1       939.6    
        996.8       945.1       1045.       1275.       1407.       1450.    
        1356.       1210.       1210.       1205.       1177.       1100.    
  10    77.97       278.8       465.3       634.3       814.9       974.7    
        998.5       998.5       1103.       1279.       1395.       1453.    
        1424.       1267.       1214.       1204.       1159.       1100.    
  11    224.9       343.7       486.3       640.1       807.9       926.5    
        996.7       1045.       1132.       1306.       1441.       1457.    
        1448.       1302.       1217.       1206.       1157.       1100.    
  12    9999.       9999.       9999.       9999.       869.5       947.6    
        1018.       1066.       1062.       1307.       1459.       1460.    
        1479.       1358.       1277.       1217.       1165.       1100.    
  13    9999.       9999.       9999.       9999.       9999.       998.8    
        1062.       1124.       1187.       1328.       1483.       1513.    
        1515.       1419.       1303.       1227.       1183.       1154.    
  14    9999.       9999.       9999.       9999.       9999.       9999.    
        1116.       1179.       1224.       1283.       1368.       1396.    
        1380.       1333.       1276.       1213.       1193.       1178.    
  15    9999.       9999.       9999.       9999.       9999.       9999.    
        9999.       1239.       1241.       1243.       1282.       1301.    
        1285.       1226.       1241.       1206.       1193.       1189.    
  16    9999.       9999.       9999.       9999.       9999.       9999.    
        9999.       9999.       1242.       1242.       1256.       1262.    
        1249.       1212.       1217.       1197.       1193.       1192.    
  17    9999.       9999.       9999.       9999.       9999.       9999.    
        9999.       9999.       9999.       1242.       1247.       1247.    
        1239.       1223.       1211.       1196.       1194.       1194.    
  18    9999.       9999.       9999.       9999.       9999.       9999.    
        9999.       9999.       9999.       9999.       1245.       1242.    
        1235.       1223.       1209.       1195.       1195.       1194.    
1
  HEAD AT END OF TIME STEP  1 IN STRESS PERIOD  1
  IN HYDROGEOLOGIC UNIT  3 WITH NAME HGU3      
  -----------------------------------------------------------------------

            1           2           3           4           5           6
            7           8           9          10          11          12
           13          14          15          16          17          18
 ........................................................................
   1    0.000       434.8       863.6       952.9       975.8       988.9    
        1029.       1108.       1160.       1174.       1181.       9999.    
        9999.       9999.       9999.       9999.       9999.       9999.    
   2    0.000       426.4       855.9       945.5       972.9       983.6    
        1010.       1083.       1149.       1175.       1184.       1187.    
        9999.       9999.       9999.       9999.       9999.       9999.    
   3    0.000       397.9       829.2       929.4       962.9       966.4    
        988.3       1064.       1143.       1171.       1187.       1189.    
        1191.       9999.       9999.       9999.       9999.       9999.    
   4    0.000       313.3       669.8       891.7       942.8       956.1    
        983.8       1047.       1117.       1151.       1162.       1186.    
        1192.       1193.       9999.       9999.       9999.       9999.    
   5    0.000       252.3       539.3       763.0       881.4       933.7    
        961.1       977.7       1030.       1112.       1147.       1181.    
        1193.       1192.       1192.       9999.       9999.       9999.    
   6    0.000       219.9       462.1       694.0       865.6       934.6    
        965.7       948.4       995.1       1101.       1161.       1176.    
        1189.       1185.       1188.       1188.       9999.       9999.    
   7    71.31       222.7       394.8       654.4       897.4       966.4    
        1018.       991.1       1018.       1120.       1188.       1193.    
        1181.       1164.       1168.       1167.       1161.       9999.    
   8    116.0       252.5       434.8       642.4       865.8       978.6    
        1017.       987.1       1022.       1156.       1265.       1297.    
        1236.       1202.       1198.       1189.       1165.       1100.    
   9    148.6       287.3       453.1       625.8       848.6       974.1    
        1014.       979.1       1032.       1207.       1332.       1374.    
        1301.       1213.       1211.       1204.       1165.       1100.    
  10    176.3       319.4       472.7       631.3       820.9       990.7    
        1004.       997.6       1092.       1262.       1372.       1407.    
        1353.       1244.       1214.       1208.       1161.       1100.    
  11    267.9       361.8       490.9       637.8       803.5       926.3    
        998.0       1043.       1137.       1291.       1397.       1414.    
        1379.       1269.       1217.       1210.       1157.       1100.    
  12    9999.       9999.       9999.       9999.       864.0       941.8    
        1018.       1075.       1126.       1293.       1412.       1425.    
        1409.       1313.       1256.       1214.       1165.       1100.    
  13    9999.       9999.       9999.       9999.       9999.       994.7    
        1059.       1124.       1193.       1308.       1427.       1459.    
        1448.       1360.       1274.       1221.       1184.       1154.    
  14    9999.       9999.       9999.       9999.       9999.       9999.    
        1112.       1170.       1221.       1281.       1348.       1374.    
        1360.       1317.       1260.       1207.       1193.       1180.    
  15    9999.       9999.       9999.       9999.       9999.       9999.    
        9999.       1221.       1235.       1250.       1280.       1293.    
        1281.       1245.       1232.       1203.       1194.       1188.    
  16    9999.       9999.       9999.       9999.       9999.       9999.    
        9999.       9999.       1240.       1245.       1256.       1260.    
        1250.       1226.       1218.       1202.       1195.       1192.    
  17    9999.       9999.       9999.       9999.       9999.       9999.    
        9999.       9999.       9999.       1244.       1247.       1247.    
        1239.       1226.       1214.       1201.       1196.       1194.    
  18    9999.       9999.       9999.       9999.       9999.       9999.    
        9999.       9999.       9999.       9999.       1245.       1242.    
        1235.       1225.       1212.       1200.       1196.       1194.    
1
  HEAD AT END OF TIME STEP  1 IN STRESS PERIOD  1
  IN HYDROGEOLOGIC UNIT  4 WITH NAME HGU4      
  -----------------------------------------------------------------------

            1           2           3           4           5           6
            7           8           9          10          11          12
           13          14          15          16          17          18
 ........................................................................
   1    0.000       427.2       824.2       952.7       977.3       995.9    
        1031.       1093.       1140.       1162.       1174.       9999.    
        9999.       9999.       9999.       9999.       9999.       9999.    
   2    0.000       418.3       813.8       933.1       976.0       988.8    
        1010.       1069.       1130.       1163.       1181.       1185.    
        9999.       9999.       9999.       9999.       9999.       9999.    
   3    0.000       389.7       780.0       912.7       957.1       976.1    
        988.7       1052.       1115.       1153.       1186.       1187.    
        1189.       9999.       9999.       9999.       9999.       9999.    
   4    0.000       316.4       653.0       863.5       932.0       953.2    
        984.7       1032.       1085.       1129.       1156.       1180.    
        1191.       1192.       9999.       9999.       9999.       9999.    
   5    0.000       257.6       536.4       755.7       878.1       934.4    
        962.2       976.9       1021.       1093.       1133.       1163.    
        1192.       1191.       1190.       9999.       9999.       9999.    
   6    0.000       225.4       461.8       693.9       867.8       942.6    
        971.9       956.3       993.2       1073.       1118.       1139.    
        1186.       1180.       1184.       1184.       9999.       9999.    
   7    90.90       228.9       390.3       647.2       904.2       974.8    
        1021.       1023.       1033.       1059.       1082.       1091.    
        1095.       1095.       1101.       1105.       1107.       9999.    
   8    165.5       261.2       435.2       641.9       867.9       985.2    
        1019.       993.9       1028.       1082.       1184.       1277.    
        1231.       1200.       1196.       1185.       1112.       1100.    
   9    216.2       313.3       454.2       589.2       849.7       983.2    
        1015.       988.2       1029.       1145.       1225.       1303.    
        1271.       1214.       1211.       1204.       1146.       1100.    
  10    254.4       349.0       476.7       615.1       772.0       990.8    
        1004.       997.6       1089.       1257.       1362.       1389.    
        1306.       1238.       1214.       1208.       1154.       1100.    
  11    303.7       379.3       494.6       630.7       784.9       893.0    
        997.9       1043.       1139.       1305.       1368.       1377.    
        1336.       1260.       1217.       1211.       1153.       1100.    
  12    9999.       9999.       9999.       9999.       852.2       921.5    
        1018.       1078.       1144.       1289.       1381.       1388.    
        1360.       1301.       1251.       1213.       1165.       1100.    
  13    9999.       9999.       9999.       9999.       9999.       986.3    
        1052.       1124.       1195.       1303.       1407.       1438.    
        1423.       1338.       1266.       1220.       1184.       1155.    
  14    9999.       9999.       9999.       9999.       9999.       9999.    
        1107.       1161.       1220.       1280.       1343.       1367.    
        1354.       1310.       1254.       1205.       1193.       1181.    
  15    9999.       9999.       9999.       9999.       9999.       9999.    
        9999.       1206.       1231.       1249.       1269.       1277.    
        1268.       1245.       1226.       1203.       1194.       1188.    
  16    9999.       9999.       9999.       9999.       9999.       9999.    
        9999.       9999.       1238.       1246.       1254.       1256.    
        1248.       1232.       1220.       1205.       1198.       1194.    
  17    9999.       9999.       9999.       9999.       9999.       9999.    
        9999.       9999.       9999.       1245.       1247.       1246.    
        1239.       1228.       1216.       1205.       1198.       1194.    
  18    9999.       9999.       9999.       9999.       9999.       9999.    
        9999.       9999.       9999.       9999.       1244.       1242.    
        1235.       1226.       1215.       1204.       1198.       1194.    
1
  HEAD AT END OF TIME STEP  1 IN STRESS PERIOD  1
  IN HYDROGEOLOGIC UNIT  5 WITH NAME HGU5      
  -----------------------------------------------------------------------

            1           2           3           4           5           6
            7           8           9          10          11          12
           13          14          15          16          17          18
 ........................................................................
   1    0.000       322.8       767.7       962.6       980.1       999.9    
        1032.       1085.       1127.       1154.       1169.       9999.    
        9999.       9999.       9999.       9999.       9999.       9999.    
   2    0.000       309.4       714.6       915.9       981.8       992.8    
        1012.       1061.       1117.       1155.       1178.       1183.    
        9999.       9999.       9999.       9999.       9999.       9999.    
   3    0.000       286.8       668.0       860.1       951.0       983.0    
        1000.       1049.       1100.       1140.       1174.       1186.    
        1189.       9999.       9999.       9999.       9999.       9999.    
   4    0.000       245.8       588.0       801.0       905.4       956.8    
        988.1       1028.       1074.       1117.       1149.       1176.    
        1190.       1191.       9999.       9999.       9999.       9999.    
   5    0.000       209.1       508.0       725.8       860.1       931.9    
        971.3       998.0       1037.       1086.       1122.       1150.    
        1178.       1190.       1190.       9999.       9999.       9999.    
   6    0.000       191.3       452.7       674.5       841.4       934.3    
        985.1       997.3       1023.       1061.       1087.       1107.    
        1134.       1146.       1149.       1138.       9999.       9999.    
   7    94.93       222.9       418.7       639.2       844.5       962.4    
        1024.       1031.       1039.       1046.       1053.       1060.    
        1067.       1075.       1081.       1087.       1092.       9999.    
   8    192.6       261.9       416.4       608.8       816.1       959.7    
        1022.       1019.       1038.       1065.       1127.       1187.    
        1184.       1169.       1161.       1141.       1096.       1100.    
   9    256.3       329.7       453.7       552.6       748.5       925.7    
        999.0       1015.       1065.       1131.       1195.       1257.    
        1261.       1229.       1211.       1188.       1130.       1100.    
  10    298.7       368.6       478.9       598.9       719.1       880.7    
        979.8       1027.       1114.       1229.       1296.       1318.    
        1284.       1246.       1218.       1195.       1146.       1100.    
  11    329.1       392.6       497.3       623.9       766.6       858.2    
        964.0       1057.       1181.       1324.       1354.       1354.    
        1316.       1267.       1229.       1199.       1149.       1100.    
  12    9999.       9999.       9999.       9999.       841.3       901.9    
        997.4       1084.       1175.       1303.       1367.       1363.    
        1335.       1292.       1256.       1205.       1145.       1100.    
  13    9999.       9999.       9999.       9999.       9999.       978.6    
        1045.       1116.       1196.       1288.       1360.       1378.    
        1359.       1308.       1258.       1214.       1173.       1144.    
  14    9999.       9999.       9999.       9999.       9999.       9999.    
        1103.       1154.       1208.       1265.       1307.       1322.    
        1312.       1280.       1244.       1211.       1192.       1180.    
  15    9999.       9999.       9999.       9999.       9999.       9999.    
        9999.       1197.       1228.       1245.       1258.       1262.    
        1255.       1240.       1224.       1207.       1197.       1192.    
  16    9999.       9999.       9999.       9999.       9999.       9999.    
        9999.       9999.       1237.       1245.       1251.       1252.    
        1246.       1233.       1220.       1208.       1199.       1195.    
  17    9999.       9999.       9999.       9999.       9999.       9999.    
        9999.       9999.       9999.       1246.       1247.       1245.    
        1239.       1229.       1218.       1207.       1200.       1196.    
  18    9999.       9999.       9999.       9999.       9999.       9999.    
        9999.       9999.       9999.       9999.       1244.       1242.    
        1236.       1227.       1216.       1207.       1200.       1196.    

 Run end date and time (yyyy/mm/dd hh:mm:ss): 2013/07/31 13:33:56
 Elapsed run time:  0.075 Seconds

