                                  MODFLOW-2005     
      U.S. GEOLOGICAL SURVEY MODULAR FINITE-DIFFERENCE GROUND-WATER FLOW MODEL
                            VERSION 1.11.00 8/8/2013

 LIST FILE: test1tr.lst
                         UNIT    9

 OPENING test1tr.ba6
 FILE TYPE:BAS6   UNIT   75   STATUS:OLD    
 FORMAT:FORMATTED              ACCESS:SEQUENTIAL          

 OPENING test1tr.lpf
 FILE TYPE:LPF   UNIT    7   STATUS:OLD    
 FORMAT:FORMATTED              ACCESS:SEQUENTIAL          

 OPENING test1tr.dis
 FILE TYPE:DIS   UNIT    8   STATUS:OLD    
 FORMAT:FORMATTED              ACCESS:SEQUENTIAL          

 OPENING test1tr.sip
 FILE TYPE:SIP   UNIT   13   STATUS:OLD    
 FORMAT:FORMATTED              ACCESS:SEQUENTIAL          

 OPENING test1tr.oc
 FILE TYPE:OC   UNIT   14   STATUS:OLD    
 FORMAT:FORMATTED              ACCESS:SEQUENTIAL          

 OPENING test1tr.sfr
 FILE TYPE:SFR   UNIT   15   STATUS:OLD    
 FORMAT:FORMATTED              ACCESS:SEQUENTIAL          

 OPENING test1tr.wel
 FILE TYPE:WEL   UNIT   16   STATUS:OLD    
 FORMAT:FORMATTED              ACCESS:SEQUENTIAL          

 OPENING test1tr.ghb
 FILE TYPE:GHB   UNIT   17   STATUS:OLD    
 FORMAT:FORMATTED              ACCESS:SEQUENTIAL          

 OPENING test1tr.evt
 FILE TYPE:EVT   UNIT   18   STATUS:OLD    
 FORMAT:FORMATTED              ACCESS:SEQUENTIAL          

 OPENING test1tr.rch
 FILE TYPE:RCH   UNIT   19   STATUS:OLD    
 FORMAT:FORMATTED              ACCESS:SEQUENTIAL          

 OPENING test1tr.gag
 FILE TYPE:GAGE   UNIT   32   STATUS:OLD    
 FORMAT:FORMATTED              ACCESS:SEQUENTIAL          

 OPENING test1tr.hds
 FILE TYPE:DATA   UNIT   58   STATUS:UNKNOWN
 FORMAT:FORMATTED              ACCESS:SEQUENTIAL          

 OPENING test1tr.et
 FILE TYPE:DATA(BINARY)   UNIT   59   STATUS:UNKNOWN
 FORMAT:BINARY                 ACCESS:SEQUENTIAL          

 OPENING test1tr.flw
 FILE TYPE:DATA   UNIT   81   STATUS:UNKNOWN
 FORMAT:FORMATTED              ACCESS:SEQUENTIAL          

 OPENING test1tr.sg1
 FILE TYPE:DATA   UNIT   83   STATUS:UNKNOWN
 FORMAT:FORMATTED              ACCESS:SEQUENTIAL          

 OPENING test1tr.sg2
 FILE TYPE:DATA   UNIT   84   STATUS:UNKNOWN
 FORMAT:FORMATTED              ACCESS:SEQUENTIAL          

 OPENING test1tr.sg3
 FILE TYPE:DATA   UNIT   85   STATUS:UNKNOWN
 FORMAT:FORMATTED              ACCESS:SEQUENTIAL          

 OPENING test1tr.sg4
 FILE TYPE:DATA   UNIT   86   STATUS:UNKNOWN
 FORMAT:FORMATTED              ACCESS:SEQUENTIAL          

 OPENING test1tr.sg5
 FILE TYPE:DATA   UNIT   87   STATUS:UNKNOWN
 FORMAT:FORMATTED              ACCESS:SEQUENTIAL          

 OPENING test1tr.sg6
 FILE TYPE:DATA   UNIT   88   STATUS:UNKNOWN
 FORMAT:FORMATTED              ACCESS:SEQUENTIAL          

 OPENING test1tr.sg7
 FILE TYPE:DATA   UNIT   89   STATUS:UNKNOWN
 FORMAT:FORMATTED              ACCESS:SEQUENTIAL          

 OPENING test1tr.sg8
 FILE TYPE:DATA   UNIT   90   STATUS:UNKNOWN
 FORMAT:FORMATTED              ACCESS:SEQUENTIAL          

 OPENING test1tr.dvsg9
 FILE TYPE:DATA   UNIT   91   STATUS:UNKNOWN
 FORMAT:FORMATTED              ACCESS:SEQUENTIAL          

 BAS -- BASIC PACKAGE, VERSION 7, 5/2/2005 INPUT READ FROM UNIT   75
 
 MODFLOW was compiled using mixed precision
 Precision of REAL variables:           6
 Precision of DOUBLE PRECISION variables:          15

 DISCRETIZATION INPUT DATA READ FROM UNIT    8
 #Discretization input data for Test1 --Transient
    1 LAYERS        15 ROWS        10 COLUMNS
    2 STRESS PERIOD(S) IN SIMULATION
 MODEL TIME UNIT IS SECONDS
 MODEL LENGTH UNIT IS FEET
  Confining bed flag for each layer:
   0

                     DELR =   5000.00    

                     DELC =   5000.00    



           TOP ELEVATION OF LAYER 1
 READING ON UNIT    8 WITH FORMAT: (10F7.0)            

            1           2           3           4           5           6           7           8           9          10
 ........................................................................................................................
   1    1105.       1105.       0.000       0.000       0.000       0.000       0.000       0.000       0.000       0.000    
   2    1105.       1095.       1105.       0.000       0.000       1100.       1100.       1110.       0.000       0.000    
   3    0.000       1100.       1085.       1080.       1078.       1076.       1073.       1090.       0.000       0.000    
   4    1110.       1100.       1090.       1085.       1076.       1080.       1080.       1070.       1100.       0.000    
   5    1110.       1100.       1085.       1080.       1078.       1074.       1077.       1066.       1075.       1080.    
   6    1105.       1095.       1080.       1077.       1073.       1069.       1070.       1063.       1085.       1095.    
   7    1105.       1090.       1075.       1072.       1070.       1065.       1065.       1069.       1090.       0.000    
   8    0.000       1080.       1070.       1068.       1063.       1060.       1063.       1067.       1090.       0.000    
   9    0.000       1075.       1065.       1062.       1058.       1052.       1055.       1065.       1090.       0.000    
  10    0.000       1070.       1060.       1055.       1046.       1046.       1044.       1060.       1088.       1100.    
  11    0.000       1055.       1050.       1045.       1041.       1042.       1040.       1050.       1075.       0.000    
  12    1027.       1028.       1028.       1032.       1032.       1033.       1032.       1040.       1060.       0.000    
  13    997.0       1004.       1008.       1014.       1020.       1027.       1032.       1038.       1050.       0.000    
  14    0.000       1030.       1040.       1045.       1050.       1050.       1050.       1050.       1044.       0.000    
  15    0.000       0.000       1080.       1080.       1080.       1080.       0.000       0.000       0.000       0.000    



             MODEL LAYER BOTTOM EL. FOR LAYER   1
 READING ON UNIT    8 WITH FORMAT: (10F7.0)            

            1           2           3           4           5           6           7           8           9          10
 ........................................................................................................................
   1   1000.0      1000.0       0.000       0.000       0.000       0.000       0.000       0.000       0.000       0.000    
   2   1000.0       900.0       900.0       0.000       0.000       950.0       950.0       950.0       0.000       0.000    
   3    0.000       850.0       670.0       680.0       680.0       770.0       770.0       890.0       0.000       0.000    
   4    925.0       850.0       650.0       650.0       650.0       680.0       740.0       850.0       950.0       0.000    
   5    925.0       800.0       650.0       600.0       600.0       600.0       650.0       720.0       850.0       950.0    
   6    925.0       800.0       650.0       600.0       550.0       600.0       650.0       720.0       850.0       970.0    
   7    925.0       800.0       650.0       600.0       550.0       600.0       650.0       720.0       950.0       0.000    
   8    0.000       850.0       700.0       650.0       570.0       600.0       700.0       850.0       950.0       0.000    
   9    0.000       850.0       700.0       650.0       540.0       580.0       700.0       850.0       950.0       0.000    
  10    0.000       850.0       700.0       630.0       530.0       580.0       650.0       800.0       900.0       950.0    
  11    0.000       850.0       700.0       620.0       580.0       620.0       700.0       800.0       900.0       0.000    
  12    900.0       830.0       710.0       640.0       600.0       650.0       700.0       800.0       900.0       0.000    
  13    900.0       810.0       750.0       700.0       650.0       700.0       750.0       800.0       900.0       0.000    
  14    0.000       950.0       850.0       850.0       850.0       850.0       850.0       850.0       850.0       0.000    
  15    0.000       0.000       950.0       950.0       950.0       950.0       0.000       0.000       0.000       0.000    


 STRESS PERIOD     LENGTH       TIME STEPS     MULTIPLIER FOR DELT    SS FLAG
 ----------------------------------------------------------------------------
        1        1.5778801E+09     50                    1.100         TR
        2        1.5778801E+09     50                    1.100         TR

 TRANSIENT SIMULATION



 
 #TestProblem 1                                                                  
 #Transient Simulation For SFR Package                                           
 THE FREE FORMAT OPTION HAS BEEN SELECTED



                     BOUNDARY ARRAY FOR LAYER   1
 READING ON UNIT   75 WITH FORMAT: (20I4)              

                1           2           3           4           5           6           7           8           9          10
 ............................................................................................................................
   1            1           1           0           0           0           0           0           0           0           0
   2            1           1           1           0           0           1           1           1           0           0
   3            0           1           1           1           1           1           1           1           0           0
   4            1           1           1           1           1           1           1           1           1           0
   5            1           1           1           1           1           1           1           1           1           1
   6            1           1           1           1           1           1           1           1           1           1
   7            1           1           1           1           1           1           1           1           1           0
   8            0           1           1           1           1           1           1           1           1           0
   9            0           1           1           1           1           1           1           1           1           0
  10            0           1           1           1           1           1           1           1           1           1
  11            0           1           1           1           1           1           1           1           1           0
  12            1           1           1           1           1           1           1           1           1           0
  13            1           1           1           1           1           1           1           1           1           0
  14            0           1           1           1           1           1           1           1           1           0
  15            0           0           1           1           1           1           0           0           0           0

 AQUIFER HEAD WILL BE SET TO   6999.0     AT ALL NO-FLOW NODES (IBOUND=0).



                       INITIAL HEAD FOR LAYER   1
 READING ON UNIT   75 WITH FORMAT: (10F8.0)            

            1           2           3           4           5           6           7           8           9          10
 ........................................................................................................................
   1    1093.       1089.       6999.       6999.       6999.       6999.       6999.       6999.       6999.       6999.    
   2    1090.       1087.       1081.       6999.       6999.       1072.       1072.       1071.       6999.       6999.    
   3    6999.       1079.       1078.       1074.       1072.       1071.       1069.       1068.       6999.       6999.    
   4    1069.       1071.       1070.       1067.       1066.       1064.       1064.       1066.       1066.       6999.    
   5    1065.       1064.       1063.       1062.       1061.       1061.       1060.       1062.       1066.       1068.    
   6    1060.       1058.       1057.       1056.       1056.       1057.       1057.       1059.       1062.       1066.    
   7    1056.       1053.       1052.       1051.       1051.       1052.       1053.       1056.       1056.       6999.    
   8    6999.       1046.       1046.       1046.       1046.       1046.       1048.       1050.       1050.       6999.    
   9    6999.       1039.       1039.       1040.       1040.       1041.       1042.       1043.       1044.       6999.    
  10    6999.       1031.       1032.       1033.       1034.       1035.       1036.       1038.       1039.       1042.    
  11    6999.       1021.       1023.       1027.       1029.       1030.       1032.       1034.       1036.       6999.    
  12    1001.       1009.       1014.       1020.       1023.       1026.       1029.       1030.       1034.       6999.    
  13    994.5      1000.0       1007.       1013.       1019.       1024.       1029.       1034.       1036.       6999.    
  14    6999.       1004.       1009.       1014.       1019.       1024.       1030.       1035.       1039.       6999.    
  15    6999.       6999.       1012.       1015.       1019.       1022.       6999.       6999.       6999.       6999.    

 OUTPUT CONTROL IS SPECIFIED ONLY AT TIME STEPS FOR WHICH OUTPUT IS DESIRED
 HEADS WILL BE SAVED WITH FORMAT: (10F10.3)           
 SAVED HEADS WILL BE LABELED
 HEAD PRINT FORMAT CODE IS   4    DRAWDOWN PRINT FORMAT CODE IS   0
 HEADS WILL BE SAVED ON UNIT   58    DRAWDOWNS WILL BE SAVED ON UNIT    0

 LPF -- LAYER-PROPERTY FLOW PACKAGE, VERSION 7, 5/2/2005
         INPUT READ FROM UNIT    7
 # Layer-Property Flow Package input
 # For transient and steady state simulations
 HEAD AT CELLS THAT CONVERT TO DRY=   0.0000    
 No named parameters

   LAYER FLAGS:
 LAYER       LAYTYP        LAYAVG         CHANI        LAYVKA        LAYWET
 ---------------------------------------------------------------------------
    1             1             0     1.000E+00             1             0

   INTERPRETATION OF LAYER FLAGS:
                        INTERBLOCK     HORIZONTAL    DATA IN
         LAYER TYPE   TRANSMISSIVITY   ANISOTROPY   ARRAY VKA   WETTABILITY
 LAYER      (LAYTYP)      (LAYAVG)       (CHANI)      (LAYVKA)      (LAYWET)
 ---------------------------------------------------------------------------
    1   CONVERTIBLE      HARMONIC     1.000E+00    ANISOTROPY  NON-WETTABLE

 WETTING CAPABILITY IS NOT ACTIVE IN ANY LAYER



              HYD. COND. ALONG ROWS FOR LAYER   1
 READING ON UNIT    7 WITH FORMAT: (10F5.0)            

            1           2           3           4           5           6           7           8           9          10
 ........................................................................................................................
   1   2.0000E-03  2.0000E-03   0.000       0.000       0.000       0.000       0.000       0.000       0.000       0.000    
   2   4.0000E-04  2.0000E-03  2.0000E-03   0.000       0.000      4.0000E-04  4.0000E-04  4.0000E-04   0.000       0.000    
   3    0.000      4.0000E-04  2.0000E-03  2.0000E-03  4.0000E-04  4.0000E-04  4.0000E-04  4.0000E-04   0.000       0.000    
   4   4.0000E-04  4.0000E-04  4.0000E-04  2.0000E-03  2.0000E-03  2.0000E-03  4.0000E-04  4.0000E-04  4.0000E-04   0.000    
   5   4.0000E-04  4.0000E-04  4.0000E-04  2.0000E-03  2.0000E-03  2.0000E-03  2.0000E-03  2.0000E-03  2.0000E-03  2.0000E-03
   6   4.0000E-04  4.0000E-04  4.0000E-04  2.0000E-03  2.0000E-03  2.0000E-03  2.0000E-03  2.0000E-03  4.0000E-04  4.0000E-04
   7   4.0000E-04  4.0000E-04  4.0000E-04  2.0000E-03  2.0000E-03  2.0000E-03  2.0000E-03  2.0000E-03  4.0000E-04   0.000    
   8    0.000      4.0000E-04  4.0000E-04  2.0000E-03  2.0000E-03  2.0000E-03  2.0000E-03  4.0000E-04  4.0000E-04   0.000    
   9    0.000      4.0000E-04  4.0000E-04  2.0000E-03  2.0000E-03  2.0000E-03  2.0000E-03  4.0000E-04  4.0000E-04   0.000    
  10    0.000      4.0000E-04  4.0000E-04  2.0000E-03  2.0000E-03  2.0000E-03  2.0000E-03  4.0000E-04  4.0000E-04  4.0000E-04
  11    0.000      4.0000E-04  4.0000E-04  2.0000E-03  2.0000E-03  2.0000E-03  2.0000E-03  4.0000E-04  4.0000E-04   0.000    
  12   4.0000E-04  4.0000E-04  2.0000E-03  2.0000E-03  2.0000E-03  2.0000E-03  2.0000E-03  4.0000E-04  4.0000E-04   0.000    
  13   2.0000E-03  2.0000E-03  2.0000E-03  2.0000E-03  2.0000E-03  2.0000E-03  2.0000E-03  2.0000E-03  2.0000E-03   0.000    
  14    0.000      4.0000E-04  4.0000E-04  4.0000E-04  4.0000E-04  4.0000E-04  4.0000E-04  4.0000E-04  2.0000E-03   0.000    
  15    0.000       0.000      4.0000E-04  4.0000E-04  4.0000E-04  4.0000E-04   0.000       0.000       0.000       0.000    

  HORIZ. TO VERTICAL ANI. =  1.000000     FOR LAYER   1

         SPECIFIC STORAGE =  1.000000E-06 FOR LAYER   1



                     SPECIFIC YIELD FOR LAYER   1
 READING ON UNIT    7 WITH FORMAT: (10F4.0)            

            1           2           3           4           5           6           7           8           9          10
 ........................................................................................................................
   1   0.2000      0.2000       0.000       0.000       0.000       0.000       0.000       0.000       0.000       0.000    
   2   1.0000E-01  0.2000      0.2000       0.000       0.000      1.0000E-01  1.0000E-01  1.0000E-01   0.000       0.000    
   3    0.000      1.0000E-01  0.2000      0.2000      1.0000E-01  1.0000E-01  1.0000E-01  1.0000E-01   0.000       0.000    
   4   1.0000E-01  1.0000E-01  1.0000E-01  0.2000      0.2000      0.2000      1.0000E-01  1.0000E-01  1.0000E-01   0.000    
   5   1.0000E-01  1.0000E-01  1.0000E-01  0.2000      0.2000      0.2000      0.2000      0.2000      0.2000      0.2000    
   6   1.0000E-01  1.0000E-01  1.0000E-01  0.2000      0.2000      0.2000      0.2000      0.2000      1.0000E-01  1.0000E-01
   7   1.0000E-01  1.0000E-01  1.0000E-01  0.2000      0.2000      0.2000      0.2000      0.2000      1.0000E-01   0.000    
   8    0.000      1.0000E-01  1.0000E-01  0.2000      0.2000      0.2000      0.2000      1.0000E-01  1.0000E-01   0.000    
   9    0.000      1.0000E-01  1.0000E-01  0.2000      0.2000      0.2000      0.2000      1.0000E-01  1.0000E-01   0.000    
  10    0.000      1.0000E-01  1.0000E-01  0.2000      0.2000      0.2000      0.2000      1.0000E-01  1.0000E-01  1.0000E-01
  11    0.000      1.0000E-01  1.0000E-01  0.2000      0.2000      0.2000      0.2000      1.0000E-01  1.0000E-01   0.000    
  12   1.0000E-01  1.0000E-01  0.2000      0.2000      0.2000      0.2000      0.2000      1.0000E-01  1.0000E-01   0.000    
  13   0.2000      0.2000      0.2000      0.2000      0.2000      0.2000      0.2000      0.2000      0.2000       0.000    
  14    0.000      1.0000E-01  1.0000E-01  1.0000E-01  1.0000E-01  1.0000E-01  1.0000E-01  1.0000E-01  0.2000       0.000    
  15    0.000       0.000      1.0000E-01  1.0000E-01  1.0000E-01  1.0000E-01   0.000       0.000       0.000       0.000    

 WEL -- WELL PACKAGE, VERSION 7, 5/2/2005 INPUT READ FROM UNIT   16
 No named parameters
 MAXIMUM OF     10 ACTIVE WELLS AT ONE TIME
 CELL-BY-CELL FLOWS WILL BE PRINTED WHEN ICBCFL NOT 0


     0 Well parameters

 EVT -- EVAPOTRANSPIRATION PACKAGE, VERSION 7, 5/2/2005
         INPUT READ FROM UNIT   18
 No named parameters
 OPTION 1 -- EVAPOTRANSPIRATION FROM TOP LAYER
 CELL-BY-CELL FLOWS WILL BE SAVED ON UNIT   59


     0 Evapotranspiration parameters

 GHB -- GENERAL-HEAD BOUNDARY PACKAGE, VERSION 7, 5/2/2005
         INPUT READ FROM UNIT   17
 No named parameters
 MAXIMUM OF      2 ACTIVE GHB CELLS AT ONE TIME
 CELL-BY-CELL FLOWS WILL BE PRINTED WHEN ICBCFL NOT 0


     0 GHB parameters

 RCH -- RECHARGE PACKAGE, VERSION 7, 5/2/2005 INPUT READ FROM UNIT   19
 No named parameters
 OPTION 1 -- RECHARGE TO TOP LAYER


     0 Recharge parameters

 SFR7 -- STREAMFLOW ROUTING PACKAGE, VERSION 1.0.7, 2013-01-15
         INPUT READ FROM UNIT  15
 #Test Problem 1 using SFR1
 No named parameters
 Segment information will not be 
 read by reach
 No named parameters
 No specifed inflow files


 NUMBER OF STREAM REACHES IS   36

 NUMBER OF STREAM SEGMENTS IS    8

 NUMBER OF STREAM PARAMETERS IS    0

 NUMBER OF STREAM SEGMENTS DEFINED USING PARAMETERS IS              0

 MAXIMUM ERROR FOR STREAM LEAKAGE RATES IS  1.00E-04

 CONSTANT FOR MANNINGS EQUATION IS  1.4860E+00



 STREAM OUTPUT WILL BE WRITTEN TO FILE ON UNIT   81


   STREAM NETWORK DESCRIPTION: 

   LAYER    ROW    COL   SEGMENT   REACH     LENGTH
                          NUMBER   NUMBER    IN CELL        
   --------------------------------------------------
      1      1      1       1        1    4.5000E+03
      1      2      2       1        2    7.0000E+03
      1      3      3       1        3    6.0000E+03
      1      3      4       1        4    5.5500E+03
      1      4      5       2        1    6.5000E+03
      1      5      6       2        2    5.0000E+03
      1      6      6       2        3    5.0000E+03
      1      7      6       2        4    5.0000E+03
      1      8      6       2        5    5.0000E+03
      1      3      5       3        1    5.0000E+03
      1      3      6       3        2    5.0000E+03
      1      3      7       3        3    4.5000E+03
      1      4      8       3        4    6.0000E+03
      1      5      8       3        5    5.0000E+03
      1      6      8       3        6    2.0000E+03
      1      5     10       4        1    2.5000E+03
      1      5      9       4        2    5.0000E+03
      1      6      8       4        3    3.5000E+03
      1      6      8       5        1    4.0000E+03
      1      7      7       5        2    5.0000E+03
      1      8      7       5        3    3.5000E+03
      1      8      6       5        4    2.5000E+03
      1      9      6       6        1    5.0000E+03
      1     10      7       6        2    5.0000E+03
      1     11      7       6        3    5.0000E+03
      1     12      7       6        4    5.0000E+03
      1     13      7       6        5    2.0000E+03
      1     14      9       7        1    5.0000E+03
      1     13      8       7        2    5.5000E+03
      1     13      7       7        3    5.0000E+03
      1     13      6       8        1    5.0000E+03
      1     13      5       8        2    5.0000E+03
      1     13      4       8        3    5.0000E+03
      1     13      3       8        4    5.0000E+03
      1     13      2       8        5    5.0000E+03
      1     13      1       8        6    3.0000E+03






   9 GAGING STATIONS WERE SPECIFIED.
     (Lakes are identified by a negative value of the Lake Number)
     RECORDS WILL BE WRITTEN TO SEPARATE OUTPUT FILES REPRESENTED BY FOLLOWING UNIT NUMBERS:

 Stream Gages:
  GAGE #   SEGMENT   REACH   UNIT   OUTTYPE
       1       1       4      83       4
       2       2       3      84       1
       3       3       5      85       1
       4       4       3      86       1
       5       5       4      87       4
       6       6       5      88       1
       7       7       3      89       4
       8       8       6      90       4
       9       3       1      91       5





 SIP -- STRONGLY-IMPLICIT PROCEDURE SOLUTION PACKAGE
                    VERSION 7, 5/2/2005 INPUT READ FROM UNIT   13
 MAXIMUM OF 300 ITERATIONS ALLOWED FOR CLOSURE
  5 ITERATION PARAMETERS

          SOLUTION BY THE STRONGLY IMPLICIT PROCEDURE
          -------------------------------------------
 MAXIMUM ITERATIONS ALLOWED FOR CLOSURE =      300
                 ACCELERATION PARAMETER =    0.80000    
      HEAD CHANGE CRITERION FOR CLOSURE =    0.80000E-03
      SIP HEAD CHANGE PRINTOUT INTERVAL =        1

     CALCULATE ITERATION PARAMETERS FROM MODEL CALCULATED WSEED
1
                            STRESS PERIOD NO.    1, LENGTH =  0.1577880E+10
                            -----------------------------------------------

                              NUMBER OF TIME STEPS =    50

                               MULTIPLIER FOR DELT =     1.100

                            INITIAL TIME STEP SIZE =   1355672.    

 WELL NO.  LAYER   ROW   COL   STRESS RATE         
 --------------------------------------------------
      1      1      6      4     -10.000    
      2      1      6      5     -10.000    
      3      1      7      4     -10.000    
      4      1      7      5     -10.000    
      5      1      8      4     -10.000    
      6      1      8      5     -10.000    
      7      1      9      4     -10.000    
      8      1      9      5     -10.000    
      9      1     10      4     -10.000    
     10      1     10      5     -10.000    

     10 WELLS



                         ET SURFACE
 READING ON UNIT   18 WITH FORMAT: (10F7.0)            

            1           2           3           4           5           6           7           8           9          10
 ........................................................................................................................
   1    1110.       1110.       0.000       0.000       0.000       0.000       0.000       0.000       0.000       0.000    
   2    1110.       1105.       1110.       0.000       0.000       1100.       1100.       1110.       0.000       0.000    
   3    0.000       1100.       1095.       1088.       1085.       1085.       1085.       1090.       0.000       0.000    
   4    1105.       1100.       1090.       1083.       1078.       1075.       1080.       1085.       1100.       0.000    
   5    1105.       1090.       1080.       1077.       1074.       1073.       1074.       1078.       1080.       1085.    
   6    1100.       1080.       1075.       1072.       1071.       1069.       1070.       1075.       1080.       1100.    
   7    1100.       1080.       1070.       1065.       1065.       1065.       1065.       1070.       1090.       0.000    
   8    0.000       1075.       1065.       1059.       1059.       1058.       1063.       1070.       1090.       0.000    
   9    0.000       1065.       1055.       1053.       1053.       1052.       1055.       1065.       1090.       0.000    
  10    0.000       1060.       1046.       1046.       1046.       1046.       1044.       1060.       1088.       1100.    
  11    0.000       1045.       1039.       1040.       1041.       1042.       1040.       1050.       1075.       0.000    
  12    1027.       1028.       1028.       1032.       1032.       1033.       1032.       1040.       1060.       0.000    
  13    997.0       1004.       1008.       1014.       1020.       1027.       1032.       1038.       1050.       0.000    
  14    0.000       1030.       1040.       1045.       1050.       1050.       1050.       1050.       1044.       0.000    
  15    0.000       0.000       1080.       1080.       1080.       1080.       0.000       0.000       0.000       0.000    

  EVAPOTRANSPIRATION RATE =  9.500000E-08

         EXTINCTION DEPTH =   15.0000    

 BOUND. NO. LAYER   ROW   COL     STAGE      CONDUCTANCE         
 ----------------------------------------------------------------
      1      1     13      1       988.0          0.3800E-01
      2      1     14      9       1045.          0.3800E-01

      2 GHB CELLS



                           RECHARGE
 READING ON UNIT   19 WITH FORMAT: (10F4.0)            

            1           2           3           4           5           6           7           8           9          10
 ........................................................................................................................
   1   2.5000E-10  1.0000E-09   0.000       0.000       0.000       0.000       0.000       0.000       0.000       0.000    
   2   1.0000E-09  2.5000E-10  1.0000E-09   0.000       0.000      4.0000E-09  4.0000E-09  4.0000E-09   0.000       0.000    
   3    0.000      1.0000E-09  2.5000E-10  1.0000E-09  1.0000E-09  2.5000E-10  2.5000E-10  2.5000E-10   0.000       0.000    
   4   4.0000E-09  2.5000E-10  2.5000E-10  2.5000E-10  2.5000E-10  2.5000E-10  2.5000E-10  2.5000E-10  1.0000E-09   0.000    
   5   4.0000E-09  2.5000E-10  2.5000E-10  2.5000E-10  2.5000E-10  2.5000E-10  2.5000E-10  2.5000E-10  2.5000E-10  2.5000E-10
   6   1.0000E-09  2.5000E-10  2.5000E-10  2.5000E-10  2.5000E-10  2.5000E-10  2.5000E-10  2.5000E-10  2.5000E-10  1.0000E-09
   7   1.0000E-09  2.5000E-10  2.5000E-10  2.5000E-10  2.5000E-10  2.5000E-10  2.5000E-10  2.5000E-10  1.0000E-09   0.000    
   8    0.000      1.0000E-09  2.5000E-10  2.5000E-10  2.5000E-10  2.5000E-10  2.5000E-10  2.5000E-10  1.0000E-09   0.000    
   9    0.000      1.0000E-09  2.5000E-10  2.5000E-10  2.5000E-10  2.5000E-10  2.5000E-10  2.5000E-10  1.0000E-09   0.000    
  10    0.000      1.0000E-09  2.5000E-10  2.5000E-10  2.5000E-10  2.5000E-10  2.5000E-10  2.5000E-10  2.5000E-10  4.0000E-09
  11    0.000      1.0000E-09  2.5000E-10  2.5000E-10  2.5000E-10  2.5000E-10  2.5000E-10  2.5000E-10  1.0000E-09   0.000    
  12   1.0000E-09  2.5000E-10  2.5000E-10  2.5000E-10  2.5000E-10  2.5000E-10  2.5000E-10  2.5000E-10  1.0000E-09   0.000    
  13   2.5000E-10  2.5000E-10  2.5000E-10  2.5000E-10  2.5000E-10  2.5000E-10  2.5000E-10  2.5000E-10  1.0000E-09   0.000    
  14    0.000      2.5000E-10  2.5000E-10  2.5000E-10  2.5000E-10  2.5000E-10  1.0000E-09  1.0000E-09  2.5000E-10   0.000    
  15    0.000       0.000      1.0000E-09  1.0000E-09  1.0000E-09  1.0000E-09   0.000       0.000       0.000       0.000    



 CLASSIFICATION & COUNT OF STREAM SEGMENTS BASED ON SOURCE OF INFLOW:

                HEADWATER     DIVERSION     RECEIVES TRIBUTARY FLOW
                ---------     ---------     -----------------------
                     3              1               4



                    INPUT DATA FOR EACH STREAM SEGMENT
 ---------------------------------------------------------------------------------------------

 SEGMENT    SEG.     INFLOW   OVERLAND   STREAM    STREAM   ICALC  OUTFLOW  DIVERSION PRIORITY
    NO.    LENGTH     RATE     RUNOFF      ET       PPT.    METH.  TO SEG.  FROM SEG.    NO.

      1  2.305E+04 2.500E+01 0.000E+00 0.000E+00 0.000E+00    4        2        0        0
      2  2.650E+04 0.000E+00 0.000E+00 0.000E+00 0.000E+00    1        6        0        0
      3  2.750E+04 1.000E+01 0.000E+00 0.000E+00 0.000E+00    0        5        1        0
      4  1.100E+04 1.000E+01 0.000E+00 0.000E+00 0.000E+00    1        5        0        0
      5  1.500E+04 0.000E+00 0.000E+00 0.000E+00 0.000E+00    3        6        0        0
      6  2.200E+04 0.000E+00 0.000E+00 0.000E+00 0.000E+00    1        8        0        0
      7  1.550E+04 1.500E+02 0.000E+00 0.000E+00 0.000E+00    2        8        0        0
      8  2.800E+04 0.000E+00 0.000E+00 0.000E+00 0.000E+00    2        0        0        0


         STREAMBED PROPERTIES AND STREAM DIMENSIONS

 SEGMENT     BED HYD. COND.      BED THICKNESS     ELEV.-TOP OF BED     WIDTH OF STREAM     DEPTH OF STREAM    STREAM ROUGHNESS
    No.     UPPER     LOWER     UPPER     LOWER     UPPER     LOWER     UPPER     LOWER     UPPER     LOWER   CHANNEL      BANK

     1  3.000E-05 3.000E-05 3.000E+00 3.000E+00 1.095E+03 1.075E+03
     2  3.000E-05 3.000E-05 3.000E+00 3.000E+00 1.075E+03 1.050E+03 1.200E+01 1.200E+01                     3.000E-02
     3  3.000E-05 3.000E-05 2.000E+00 2.000E+00 1.075E+03 1.060E+03 1.000E+01 6.000E+00 2.000E+00 1.000E+00
     4  3.000E-05 3.000E-05 3.000E+00 3.000E+00 1.080E+03 1.060E+03 1.000E+01 1.000E+01                     3.000E-02
     5  3.000E-05 3.000E-05 3.000E+00 3.000E+00 1.060E+03 1.045E+03
     6  3.000E-05 3.000E-05 3.000E+00 3.000E+00 1.045E+03 1.025E+03 1.200E+01 1.200E+01                     3.000E-02
     7  6.000E-05 6.000E-05 3.000E+00 3.000E+00 1.040E+03 1.025E+03                                         2.500E-02 4.500E-02
     8  6.000E-05 6.000E-05 3.000E+00 3.000E+00 1.025E+03 9.900E+02                                         2.500E-02 4.500E-02

  EIGHT POINT CROSS-SECTION DATA FOR SEGMENTS WITH ICALC = 2
    X VALUES X VALUES START FROM LEFT SIDE LOOKING DOWNSTREAM

     SEGMENT NO.        X1        X2        X3        X4        X5        X6        X7        X8
            7      0.000E+00 1.000E+01 8.000E+01 1.000E+02 1.500E+02 1.700E+02 2.400E+02 2.500E+02
            8      0.000E+00 1.000E+01 8.000E+01 1.000E+02 1.500E+02 1.700E+02 2.400E+02 2.500E+02

    Z VALUES ARE RELATIVE TO STREAMBED ELEVATION

     SEGMENT NO.          Z1        Z2        Z3        Z4        Z5        Z6        Z7        Z8
            7      2.000E+01 1.300E+01 1.000E+01 2.000E+00 0.000E+00 1.000E+01 1.300E+01 2.000E+01
            8      2.500E+01 1.700E+01 1.300E+01 4.000E+00 0.000E+00 1.000E+01 1.600E+01 2.000E+01

 STREAMFLOW RELATION WITH DEPTH IS BASED ON EQUATION Q = CDPTH*(DEPTH)**FDPTH
 STREAMFLOW RELATION WITH WIDTH IS BASED ON EQUATION Q = AWDTH*(WIDTH)**BWDTH

 SEGMENT NO.      CDPTH     FDPTH    AWDTH     BWDTH

          5 3.000E-01 3.500E-01 3.800E+00 6.000E-01

 STREAMFLOW RELATION WITH DEPTH AND WIDTH IS BASED ON TABULATED VALUES

  SEGMENT NO.   STREAMFLOW       DEPTH       WIDTH

          1     5.0000E-01   2.5000E-01   3.0000E+00
          1     1.0000E+00   4.0000E-01   3.5000E+00
          1     2.0000E+00   5.5000E-01   4.2000E+00
          1     4.0000E+00   7.0000E-01   5.3000E+00
          1     7.0000E+00   8.0000E-01   7.0000E+00
          1     1.0000E+01   9.0000E-01   8.5000E+00
          1     2.0000E+01   1.1000E+00   1.2000E+01
          1     3.0000E+01   1.2500E+00   1.4000E+01
          1     5.0000E+01   1.4000E+00   1.7000E+01
          1     7.5000E+01   1.7000E+00   2.0000E+01
          1     1.0000E+02   2.6000E+00   2.2000E+01



 
 SOLVING FOR HEAD 

 AVERAGE SEED = 0.00926851
 MINIMUM SEED = 0.00187707

     5 ITERATION PARAMETERS CALCULATED FROM AVERAGE SEED:

  0.000000E+00 0.689721E+00 0.903727E+00 0.970128E+00 0.990731E+00

     6 ITERATIONS FOR TIME STEP   1 IN STRESS PERIOD    1

 MAXIMUM HEAD CHANGE FOR EACH ITERATION:

    HEAD CHANGE   HEAD CHANGE   HEAD CHANGE   HEAD CHANGE   HEAD CHANGE
  LAYER,ROW,COL LAYER,ROW,COL LAYER,ROW,COL LAYER,ROW,COL LAYER,ROW,COL
 ----------------------------------------------------------------------
     -1.862       -0.4428       -0.9348E-01   -0.1904E-01   -0.3841E-02
  (  1,  9,  4) (  1,  8,  4) (  1,  8,  4) (  1,  8,  4) (  1,  8,  5)
    -0.7596E-03
  (  1,  8,  5)


 OUTPUT CONTROL FOR STRESS PERIOD    1   TIME STEP    1
    PRINT BUDGET
    PRINT HEAD FOR ALL LAYERS
    SAVE BUDGET

            WELLS   PERIOD    1   STEP   1
 WELL      1   LAYER   1   ROW     6   COL     4   RATE   -10.00000    
 WELL      2   LAYER   1   ROW     6   COL     5   RATE   -10.00000    
 WELL      3   LAYER   1   ROW     7   COL     4   RATE   -10.00000    
 WELL      4   LAYER   1   ROW     7   COL     5   RATE   -10.00000    
 WELL      5   LAYER   1   ROW     8   COL     4   RATE   -10.00000    
 WELL      6   LAYER   1   ROW     8   COL     5   RATE   -10.00000    
 WELL      7   LAYER   1   ROW     9   COL     4   RATE   -10.00000    
 WELL      8   LAYER   1   ROW     9   COL     5   RATE   -10.00000    
 WELL      9   LAYER   1   ROW    10   COL     4   RATE   -10.00000    
 WELL     10   LAYER   1   ROW    10   COL     5   RATE   -10.00000    
 UBUDSV SAVING "              ET" ON UNIT 59 AT TIME STEP  1, STRESS PERIOD    1

  HEAD DEP BOUNDS   PERIOD    1   STEP   1
 BOUNDARY      1   LAYER   1   ROW    13   COL     1   RATE   -0.247593    
 BOUNDARY      2   LAYER   1   ROW    14   COL     9   RATE    0.215786    



 STREAM LISTING     PERIOD      1   STEP        1

 LAYER ROW COL. STREAM  RCH.  FLOW INTO     FLOW TO   FLOW OUT OF   OVRLND.     DIRECT     STREAM       STREAM     STREAM     STREAM   STREAMBED  STREAMBED
                SEG.NO.  NO.  STRM. RCH.    AQUIFER    STRM. RCH.    RUNOFF     PRECIP       ET          HEAD       DEPTH      WIDTH   CONDCTNC.   GRADIENT

   1    1    1     1     1    2.5000E+01  7.7759E-01   2.4222E+01  0.000E+00  0.000E+00  0.000E+00  1.09422E+03  1.174E+00  1.298E+01  5.843E-01  4.436E-01
   1    2    2     1     2    2.4222E+01  2.2154E+00   2.2007E+01  0.000E+00  0.000E+00  0.000E+00  1.08921E+03  1.151E+00  1.268E+01  8.875E-01  8.321E-01
   1    3    3     1     3    2.2007E+01  2.9870E+00   1.9020E+01  0.000E+00  0.000E+00  0.000E+00  1.08353E+03  1.109E+00  1.212E+01  7.270E-01  1.370E+00
   1    3    4     1     4    1.9020E+01  2.5494E+00   1.6471E+01  0.000E+00  0.000E+00  0.000E+00  1.07847E+03  1.063E+00  1.131E+01  6.275E-01  1.354E+00
   1    4    5     2     1    6.4706E+00  2.7037E+00   3.7669E+00  0.000E+00  0.000E+00  0.000E+00  1.07240E+03  4.663E-01  1.200E+01  7.800E-01  1.155E+00
   1    5    6     2     2    3.7669E+00  1.9936E+00   1.7734E+00  0.000E+00  0.000E+00  0.000E+00  1.06683E+03  3.226E-01  1.200E+01  6.000E-01  1.108E+00
   1    6    6     2     3    1.7734E+00  1.7734E+00   0.0000E+00  0.000E+00  0.000E+00  0.000E+00  1.06185E+03  5.554E-02  1.200E+01  6.000E-01  1.019E+00
   1    7    6     2     4    0.0000E+00  0.0000E+00   0.0000E+00  0.000E+00  0.000E+00  0.000E+00  1.05708E+03  0.000E+00  1.200E+01  6.000E-01  1.000E+00
   1    8    6     2     5    0.0000E+00  0.0000E+00   0.0000E+00  0.000E+00  0.000E+00  0.000E+00  1.05236E+03  0.000E+00  1.200E+01  6.000E-01  1.000E+00
   1    3    5     3     1    1.0000E+01  2.2033E+00   7.7967E+00  0.000E+00  0.000E+00  0.000E+00  1.07555E+03  1.909E+00  9.636E+00  7.227E-01  1.524E+00
   1    3    6     3     2    7.7967E+00  1.3579E+00   6.4388E+00  0.000E+00  0.000E+00  0.000E+00  1.07264E+03  1.727E+00  8.909E+00  6.682E-01  1.016E+00
   1    3    7     3     3    6.4388E+00  4.1648E-01   6.0223E+00  0.000E+00  0.000E+00  0.000E+00  1.06987E+03  1.555E+00  8.218E+00  5.547E-01  3.754E-01
   1    4    8     3     4    6.0223E+00  6.1208E-01   5.4102E+00  0.000E+00  0.000E+00  0.000E+00  1.06682E+03  1.364E+00  7.455E+00  6.709E-01  4.562E-01
   1    5    8     3     5    5.4102E+00  8.0486E-01   4.6054E+00  0.000E+00  0.000E+00  0.000E+00  1.06362E+03  1.164E+00  6.655E+00  4.991E-01  8.063E-01
   1    6    8     3     6    4.6054E+00  4.5879E-01   4.1466E+00  0.000E+00  0.000E+00  0.000E+00  1.06158E+03  1.036E+00  6.145E+00  1.844E-01  1.244E+00
   1    5   10     4     1    1.0000E+01  9.0525E-01   9.0947E+00  0.000E+00  0.000E+00  0.000E+00  1.07835E+03  6.210E-01  1.000E+01  2.500E-01  1.207E+00
   1    5    9     4     2    9.0947E+00  1.7835E+00   7.3113E+00  0.000E+00  0.000E+00  0.000E+00  1.07148E+03  5.670E-01  1.000E+01  5.000E-01  1.189E+00
   1    6    8     4     3    7.3113E+00  1.2257E+00   6.0855E+00  0.000E+00  0.000E+00  0.000E+00  1.06368E+03  5.021E-01  1.000E+01  3.500E-01  1.167E+00
   1    6    8     5     1    1.0232E+01 -2.5545E-01   1.0488E+01  0.000E+00  0.000E+00  0.000E+00  1.05868E+03  6.800E-01  1.545E+01  6.181E-01 -1.378E-01
   1    7    7     5     2    1.0488E+01  7.7739E-01   9.7102E+00  0.000E+00  0.000E+00  0.000E+00  1.05417E+03  6.739E-01  1.522E+01  7.609E-01  3.406E-01
   1    8    7     5     3    9.7102E+00  1.0761E+00   8.6341E+00  0.000E+00  0.000E+00  0.000E+00  1.04990E+03  6.516E-01  1.436E+01  5.028E-01  7.135E-01
   1    8    6     5     4    8.6341E+00  2.6076E-01   8.3733E+00  0.000E+00  0.000E+00  0.000E+00  1.04688E+03  6.346E-01  1.373E+01  3.432E-01  2.533E-01
   1    9    6     6     1    8.3733E+00  1.5854E+00   6.7880E+00  0.000E+00  0.000E+00  0.000E+00  1.04332E+03  5.968E-01  1.200E+01  6.000E-01  8.808E-01
   1   10    7     6     2    6.7880E+00  1.3518E+00   5.4361E+00  0.000E+00  0.000E+00  0.000E+00  1.03871E+03  5.244E-01  1.200E+01  6.000E-01  7.510E-01
   1   11    7     6     3    5.4361E+00  1.2065E+00   4.2296E+00  0.000E+00  0.000E+00  0.000E+00  1.03409E+03  4.555E-01  1.200E+01  6.000E-01  6.703E-01
   1   12    7     6     4    4.2296E+00  5.4629E-01   3.6833E+00  0.000E+00  0.000E+00  0.000E+00  1.02949E+03  4.040E-01  1.200E+01  6.000E-01  3.035E-01
   1   13    7     6     5    3.6833E+00 -6.6710E-01   4.3504E+00  0.000E+00  0.000E+00  0.000E+00  1.02632E+03  4.077E-01  1.200E+01  2.400E-01 -9.265E-01
   1   14    9     7     1    1.5000E+02  3.0328E+00   1.4697E+02  0.000E+00  0.000E+00  0.000E+00  1.03986E+03  2.283E+00  5.527E+01  5.591E+00  1.808E-01
   1   13    8     7     2    1.4697E+02  4.0637E+00   1.4290E+02  0.000E+00  0.000E+00  0.000E+00  1.03476E+03  2.264E+00  5.519E+01  6.140E+00  2.206E-01
   1   13    7     7     3    1.4290E+02  3.1635E+00   1.3974E+02  0.000E+00  0.000E+00  0.000E+00  1.02966E+03  2.245E+00  5.510E+01  5.572E+00  1.893E-01
   1   13    6     8     1    1.4409E+02  1.5102E+00   1.4258E+02  0.000E+00  0.000E+00  0.000E+00  1.02464E+03  2.769E+00  4.015E+01  4.092E+00  1.230E-01
   1   13    5     8     2    1.4258E+02 -1.2396E+00   1.4382E+02  0.000E+00  0.000E+00  0.000E+00  1.01839E+03  2.768E+00  4.014E+01  4.090E+00 -1.010E-01
   1   13    4     8     3    1.4382E+02 -2.9826E+00   1.4680E+02  0.000E+00  0.000E+00  0.000E+00  1.01216E+03  2.783E+00  4.036E+01  4.113E+00 -2.417E-01
   1   13    3     8     4    1.4680E+02 -3.1056E+00   1.4991E+02  0.000E+00  0.000E+00  0.000E+00  1.00593E+03  2.805E+00  4.068E+01  4.145E+00 -2.497E-01
   1   13    2     8     5    1.4991E+02 -1.1762E+00   1.5108E+02  0.000E+00  0.000E+00  0.000E+00  9.99695E+02  2.820E+00  4.089E+01  4.167E+00 -9.408E-02
   1   13    1     8     6    1.5108E+02  4.5612E-01   1.5063E+02  0.000E+00  0.000E+00  0.000E+00  9.94698E+02  2.823E+00  4.093E+01  2.503E+00  6.075E-02



1
              HEAD IN LAYER   1 AT END OF TIME STEP   1 IN STRESS PERIOD    1
  ---------------------------------------------------------------------------

           1       2       3       4       5       6       7       8       9      10
 ...................................................................................
   1  1092.89 1089.40 6999.00 6999.00 6999.00 6999.00 6999.00 6999.00 6999.00 6999.00
   2  1089.90 1086.71 1081.41 6999.00 6999.00 1072.27 1071.48 1071.08 6999.00 6999.00
   3  6999.00 1079.40 1077.52 1073.59 1072.50 1070.60 1069.12 1068.33 6999.00 6999.00
   4  1069.09 1070.68 1070.19 1066.97 1065.42 1063.60 1063.89 1065.91 1066.09 6999.00
   5  1064.89 1063.90 1062.85 1061.15 1060.50 1060.70 1060.19 1062.01 1065.69 1068.10
   6  1059.80 1058.29 1056.94 1054.27 1054.34 1056.59 1057.16 1059.09 1061.90 1065.60
   7  1056.10 1052.99 1051.42 1048.80 1049.10 1051.52 1053.15 1055.48 1056.50 6999.00
   8  6999.00 1046.29 1045.44 1043.08 1043.57 1046.12 1047.76 1049.89 1050.40 6999.00
   9  6999.00 1039.08 1038.85 1037.09 1037.86 1040.68 1041.56 1042.89 1044.00 6999.00
  10  6999.00 1031.09 1031.59 1031.16 1032.39 1035.11 1036.45 1037.60 1039.30 1041.60
  11  6999.00 1021.40 1023.06 1026.51 1028.40 1030.42 1032.08 1033.59 1035.70 6999.00
  12  1001.20 1009.21 1014.50 1019.56 1023.07 1026.18 1028.58 1030.40 1034.30 6999.00
  13   994.52  999.98 1006.68 1012.88 1018.70 1024.28 1029.10 1034.10 1036.10 6999.00
  14  6999.00 1004.00 1008.99 1013.70 1018.90 1024.01 1029.50 1035.10 1039.32 6999.00
  15  6999.00 6999.00 1011.90 1015.10 1019.10 1022.40 6999.00 6999.00 6999.00 6999.00
1
  VOLUMETRIC BUDGET FOR ENTIRE MODEL AT END OF TIME STEP    1, STRESS PERIOD   1
  ------------------------------------------------------------------------------

     CUMULATIVE VOLUMES      L**3       RATES FOR THIS TIME STEP      L**3/T
     ------------------                 ------------------------

           IN:                                      IN:
           ---                                      ---
             STORAGE =   132197736.0000               STORAGE =          97.5145
       CONSTANT HEAD =           0.0000         CONSTANT HEAD =           0.0000
               WELLS =           0.0000                 WELLS =           0.0000
                  ET =           0.0000                    ET =           0.0000
     HEAD DEP BOUNDS =      292535.1250       HEAD DEP BOUNDS =           0.2158
            RECHARGE =     2431737.2500              RECHARGE =           1.7937
      STREAM LEAKAGE =    59376328.0000        STREAM LEAKAGE =          43.7984

            TOTAL IN =   194298336.0000              TOTAL IN =         143.3225

          OUT:                                     OUT:
          ----                                     ----
             STORAGE =      729950.5000               STORAGE =           0.5384
       CONSTANT HEAD =           0.0000         CONSTANT HEAD =           0.0000
               WELLS =   135567232.0000                 WELLS =         100.0000
                  ET =    44907516.0000                    ET =          33.1256
     HEAD DEP BOUNDS =      335655.1250       HEAD DEP BOUNDS =           0.2476
            RECHARGE =           0.0000              RECHARGE =           0.0000
      STREAM LEAKAGE =    12779262.0000        STREAM LEAKAGE =           9.4265

           TOTAL OUT =   194319616.0000             TOTAL OUT =         143.3382

            IN - OUT =      -21280.0000              IN - OUT =      -1.5686E-02

 PERCENT DISCREPANCY =          -0.01     PERCENT DISCREPANCY =          -0.01






         TIME SUMMARY AT END OF TIME STEP    1 IN STRESS PERIOD    1
                    SECONDS     MINUTES      HOURS       DAYS        YEARS
                    -----------------------------------------------------------
   TIME STEP LENGTH 1.35567E+06  22595.      376.58      15.691     4.29587E-02
 STRESS PERIOD TIME 1.35567E+06  22595.      376.58      15.691     4.29587E-02
         TOTAL TIME 1.35567E+06  22595.      376.58      15.691     4.29587E-02
1
 
 SOLVING FOR HEAD 
     6 ITERATIONS FOR TIME STEP   2 IN STRESS PERIOD    1

 MAXIMUM HEAD CHANGE FOR EACH ITERATION:

    HEAD CHANGE   HEAD CHANGE   HEAD CHANGE   HEAD CHANGE   HEAD CHANGE
  LAYER,ROW,COL LAYER,ROW,COL LAYER,ROW,COL LAYER,ROW,COL LAYER,ROW,COL
 ----------------------------------------------------------------------
     -1.866       -0.4286       -0.8996E-01   -0.1848E-01   -0.3704E-02
  (  1,  8,  4) (  1,  8,  4) (  1,  8,  4) (  1,  8,  4) (  1,  8,  4)
    -0.7246E-03
  (  1,  8,  4)


 NO OUTPUT CONTROL FOR STRESS PERIOD    1   TIME STEP    2
 
 SOLVING FOR HEAD 
     6 ITERATIONS FOR TIME STEP   3 IN STRESS PERIOD    1

 MAXIMUM HEAD CHANGE FOR EACH ITERATION:

    HEAD CHANGE   HEAD CHANGE   HEAD CHANGE   HEAD CHANGE   HEAD CHANGE
  LAYER,ROW,COL LAYER,ROW,COL LAYER,ROW,COL LAYER,ROW,COL LAYER,ROW,COL
 ----------------------------------------------------------------------
     -1.819       -0.4241       -0.9008E-01   -0.1861E-01   -0.3751E-02
  (  1,  8,  4) (  1,  8,  4) (  1,  8,  4) (  1,  8,  4) (  1,  8,  4)
    -0.7334E-03
  (  1,  8,  4)


 NO OUTPUT CONTROL FOR STRESS PERIOD    1   TIME STEP    3
 
 SOLVING FOR HEAD 
     6 ITERATIONS FOR TIME STEP   4 IN STRESS PERIOD    1

 MAXIMUM HEAD CHANGE FOR EACH ITERATION:

    HEAD CHANGE   HEAD CHANGE   HEAD CHANGE   HEAD CHANGE   HEAD CHANGE
  LAYER,ROW,COL LAYER,ROW,COL LAYER,ROW,COL LAYER,ROW,COL LAYER,ROW,COL
 ----------------------------------------------------------------------
     -1.750       -0.4169       -0.8959E-01   -0.1869E-01   -0.3779E-02
  (  1,  8,  4) (  1,  8,  4) (  1,  8,  4) (  1,  8,  4) (  1,  8,  4)
    -0.7389E-03
  (  1,  8,  4)


 NO OUTPUT CONTROL FOR STRESS PERIOD    1   TIME STEP    4
 
 SOLVING FOR HEAD 
     6 ITERATIONS FOR TIME STEP   5 IN STRESS PERIOD    1

 MAXIMUM HEAD CHANGE FOR EACH ITERATION:

    HEAD CHANGE   HEAD CHANGE   HEAD CHANGE   HEAD CHANGE   HEAD CHANGE
  LAYER,ROW,COL LAYER,ROW,COL LAYER,ROW,COL LAYER,ROW,COL LAYER,ROW,COL
 ----------------------------------------------------------------------
     -1.671       -0.4089       -0.8933E-01   -0.1877E-01   -0.3812E-02
  (  1,  8,  4) (  1,  8,  4) (  1,  8,  4) (  1,  8,  4) (  1,  8,  4)
    -0.7416E-03
  (  1,  8,  4)


 OUTPUT CONTROL FOR STRESS PERIOD    1   TIME STEP    5
    PRINT BUDGET
    PRINT HEAD FOR ALL LAYERS
    SAVE BUDGET

            WELLS   PERIOD    1   STEP   5
 WELL      1   LAYER   1   ROW     6   COL     4   RATE   -10.00000    
 WELL      2   LAYER   1   ROW     6   COL     5   RATE   -10.00000    
 WELL      3   LAYER   1   ROW     7   COL     4   RATE   -10.00000    
 WELL      4   LAYER   1   ROW     7   COL     5   RATE   -10.00000    
 WELL      5   LAYER   1   ROW     8   COL     4   RATE   -10.00000    
 WELL      6   LAYER   1   ROW     8   COL     5   RATE   -10.00000    
 WELL      7   LAYER   1   ROW     9   COL     4   RATE   -10.00000    
 WELL      8   LAYER   1   ROW     9   COL     5   RATE   -10.00000    
 WELL      9   LAYER   1   ROW    10   COL     4   RATE   -10.00000    
 WELL     10   LAYER   1   ROW    10   COL     5   RATE   -10.00000    
 UBUDSV SAVING "              ET" ON UNIT 59 AT TIME STEP  5, STRESS PERIOD    1

  HEAD DEP BOUNDS   PERIOD    1   STEP   5
 BOUNDARY      1   LAYER   1   ROW    13   COL     1   RATE   -0.247358    
 BOUNDARY      2   LAYER   1   ROW    14   COL     9   RATE    0.215276    



 STREAM LISTING     PERIOD      1   STEP        5

 LAYER ROW COL. STREAM  RCH.  FLOW INTO     FLOW TO   FLOW OUT OF   OVRLND.     DIRECT     STREAM       STREAM     STREAM     STREAM   STREAMBED  STREAMBED
                SEG.NO.  NO.  STRM. RCH.    AQUIFER    STRM. RCH.    RUNOFF     PRECIP       ET          HEAD       DEPTH      WIDTH   CONDCTNC.   GRADIENT

   1    1    1     1     1    2.5000E+01  7.9132E-01   2.4209E+01  0.000E+00  0.000E+00  0.000E+00  1.09422E+03  1.174E+00  1.298E+01  5.843E-01  4.515E-01
   1    2    2     1     2    2.4209E+01  2.1898E+00   2.2019E+01  0.000E+00  0.000E+00  0.000E+00  1.08921E+03  1.151E+00  1.268E+01  8.875E-01  8.225E-01
   1    3    3     1     3    2.2019E+01  2.9878E+00   1.9031E+01  0.000E+00  0.000E+00  0.000E+00  1.08353E+03  1.109E+00  1.212E+01  7.271E-01  1.370E+00
   1    3    4     1     4    1.9031E+01  2.5503E+00   1.6481E+01  0.000E+00  0.000E+00  0.000E+00  1.07847E+03  1.063E+00  1.131E+01  6.277E-01  1.354E+00
   1    4    5     2     1    6.4808E+00  2.7041E+00   3.7767E+00  0.000E+00  0.000E+00  0.000E+00  1.07240E+03  4.668E-01  1.200E+01  7.800E-01  1.156E+00
   1    5    6     2     2    3.7767E+00  1.9940E+00   1.7827E+00  0.000E+00  0.000E+00  0.000E+00  1.06683E+03  3.233E-01  1.200E+01  6.000E-01  1.108E+00
   1    6    6     2     3    1.7827E+00  1.7827E+00   0.0000E+00  0.000E+00  0.000E+00  0.000E+00  1.06185E+03  5.572E-02  1.200E+01  6.000E-01  1.019E+00
   1    7    6     2     4    0.0000E+00  0.0000E+00   0.0000E+00  0.000E+00  0.000E+00  0.000E+00  1.05708E+03  0.000E+00  1.200E+01  6.000E-01  1.000E+00
   1    8    6     2     5    0.0000E+00  0.0000E+00   0.0000E+00  0.000E+00  0.000E+00  0.000E+00  1.05236E+03  0.000E+00  1.200E+01  6.000E-01  1.000E+00
   1    3    5     3     1    1.0000E+01  2.3268E+00   7.6732E+00  0.000E+00  0.000E+00  0.000E+00  1.07555E+03  1.909E+00  9.636E+00  7.227E-01  1.610E+00
   1    3    6     3     2    7.6732E+00  1.4071E+00   6.2661E+00  0.000E+00  0.000E+00  0.000E+00  1.07264E+03  1.727E+00  8.909E+00  6.682E-01  1.053E+00
   1    3    7     3     3    6.2661E+00  4.0797E-01   5.8581E+00  0.000E+00  0.000E+00  0.000E+00  1.06987E+03  1.555E+00  8.218E+00  5.547E-01  3.677E-01
   1    4    8     3     4    5.8581E+00  6.2142E-01   5.2367E+00  0.000E+00  0.000E+00  0.000E+00  1.06682E+03  1.364E+00  7.455E+00  6.709E-01  4.631E-01
   1    5    8     3     5    5.2367E+00  8.7788E-01   4.3589E+00  0.000E+00  0.000E+00  0.000E+00  1.06362E+03  1.164E+00  6.655E+00  4.991E-01  8.795E-01
   1    6    8     3     6    4.3589E+00  5.0294E-01   3.8559E+00  0.000E+00  0.000E+00  0.000E+00  1.06158E+03  1.036E+00  6.145E+00  1.844E-01  1.364E+00
   1    5   10     4     1    1.0000E+01  9.0525E-01   9.0947E+00  0.000E+00  0.000E+00  0.000E+00  1.07835E+03  6.210E-01  1.000E+01  2.500E-01  1.207E+00
   1    5    9     4     2    9.0947E+00  1.7835E+00   7.3113E+00  0.000E+00  0.000E+00  0.000E+00  1.07148E+03  5.670E-01  1.000E+01  5.000E-01  1.189E+00
   1    6    8     4     3    7.3113E+00  1.2257E+00   6.0855E+00  0.000E+00  0.000E+00  0.000E+00  1.06368E+03  5.021E-01  1.000E+01  3.500E-01  1.167E+00
   1    6    8     5     1    9.9415E+00 -1.1028E-01   1.0052E+01  0.000E+00  0.000E+00  0.000E+00  1.05867E+03  6.715E-01  1.513E+01  6.050E-01 -6.076E-02
   1    7    7     5     2    1.0052E+01  1.4256E+00   8.6262E+00  0.000E+00  0.000E+00  0.000E+00  1.05416E+03  6.558E-01  1.452E+01  7.260E-01  6.545E-01
   1    8    7     5     3    8.6262E+00  1.4859E+00   7.1402E+00  0.000E+00  0.000E+00  0.000E+00  1.04987E+03  6.180E-01  1.312E+01  4.591E-01  1.079E+00
   1    8    6     5     4    7.1402E+00  1.0568E+00   6.0835E+00  0.000E+00  0.000E+00  0.000E+00  1.04683E+03  5.811E-01  1.180E+01  2.951E-01  1.194E+00
   1    9    6     6     1    6.0835E+00  2.0804E+00   4.0031E+00  0.000E+00  0.000E+00  0.000E+00  1.04319E+03  4.673E-01  1.200E+01  6.000E-01  1.156E+00
   1   10    7     6     2    4.0031E+00  1.7576E+00   2.2454E+00  0.000E+00  0.000E+00  0.000E+00  1.03853E+03  3.506E-01  1.200E+01  6.000E-01  9.765E-01
   1   11    7     6     3    2.2454E+00  1.3497E+00   8.9571E-01  0.000E+00  0.000E+00  0.000E+00  1.03387E+03  2.321E-01  1.200E+01  6.000E-01  7.499E-01
   1   12    7     6     4    8.9571E-01  5.1707E-01   3.7864E-01  0.000E+00  0.000E+00  0.000E+00  1.02923E+03  1.351E-01  1.200E+01  6.000E-01  2.873E-01
   1   13    7     6     5    3.7864E-01 -7.2230E-01   1.1009E+00  0.000E+00  0.000E+00  0.000E+00  1.02606E+03  1.478E-01  1.200E+01  2.400E-01 -1.003E+00
   1   14    9     7     1    1.5000E+02  2.9589E+00   1.4704E+02  0.000E+00  0.000E+00  0.000E+00  1.03986E+03  2.283E+00  5.528E+01  5.591E+00  1.764E-01
   1   13    8     7     2    1.4704E+02  4.0689E+00   1.4297E+02  0.000E+00  0.000E+00  0.000E+00  1.03476E+03  2.265E+00  5.519E+01  6.140E+00  2.209E-01
   1   13    7     7     3    1.4297E+02  3.3294E+00   1.3964E+02  0.000E+00  0.000E+00  0.000E+00  1.02966E+03  2.245E+00  5.510E+01  5.572E+00  1.992E-01
   1   13    6     8     1    1.4074E+02  1.7407E+00   1.3900E+02  0.000E+00  0.000E+00  0.000E+00  1.02462E+03  2.744E+00  3.979E+01  4.054E+00  1.431E-01
   1   13    5     8     2    1.3900E+02 -8.7968E-01   1.3988E+02  0.000E+00  0.000E+00  0.000E+00  1.01837E+03  2.741E+00  3.974E+01  4.050E+00 -7.241E-02
   1   13    4     8     3    1.3988E+02 -2.6171E+00   1.4250E+02  0.000E+00  0.000E+00  0.000E+00  1.01213E+03  2.754E+00  3.993E+01  4.069E+00 -2.144E-01
   1   13    3     8     4    1.4250E+02 -2.9505E+00   1.4545E+02  0.000E+00  0.000E+00  0.000E+00  1.00590E+03  2.774E+00  4.022E+01  4.099E+00 -2.400E-01
   1   13    2     8     5    1.4545E+02 -1.1268E+00   1.4658E+02  0.000E+00  0.000E+00  0.000E+00  9.99664E+02  2.789E+00  4.043E+01  4.120E+00 -9.116E-02
   1   13    1     8     6    1.4658E+02  3.8794E-01   1.4619E+02  0.000E+00  0.000E+00  0.000E+00  9.94666E+02  2.791E+00  4.047E+01  2.475E+00  5.226E-02



1
              HEAD IN LAYER   1 AT END OF TIME STEP   5 IN STRESS PERIOD    1
  ---------------------------------------------------------------------------

           1       2       3       4       5       6       7       8       9      10
 ...................................................................................
   1  1092.87 1089.42 6999.00 6999.00 6999.00 6999.00 6999.00 6999.00 6999.00 6999.00
   2  1089.89 1086.74 1081.42 6999.00 6999.00 1072.13 1071.37 1070.99 6999.00 6999.00
   3  6999.00 1079.40 1077.44 1073.29 1072.33 1070.53 1069.14 1068.41 6999.00 6999.00
   4  1069.01 1070.57 1069.81 1065.94 1064.42 1063.00 1063.67 1065.89 1066.04 6999.00
   5  1064.84 1063.71 1061.67 1058.19 1057.97 1059.39 1059.66 1061.86 1065.64 1068.10
   6  1059.76 1057.83 1054.16 1047.44 1048.49 1054.04 1056.29 1058.85 1061.87 1065.59
   7  1056.07 1052.41 1047.97 1040.14 1041.73 1048.29 1052.19 1055.15 1056.46 6999.00
   8  6999.00 1045.75 1041.99 1033.85 1035.83 1042.92 1046.63 1049.64 1050.39 6999.00
   9  6999.00 1038.57 1035.63 1028.28 1030.62 1037.66 1040.42 1042.66 1044.00 6999.00
  10  6999.00 1030.73 1029.19 1024.24 1026.70 1032.65 1035.60 1037.44 1039.29 1041.59
  11  6999.00 1021.28 1022.13 1023.80 1026.02 1029.21 1031.62 1033.48 1035.70 6999.00
  12  1001.18 1009.18 1014.22 1018.78 1022.32 1025.73 1028.36 1030.35 1034.29 6999.00
  13   994.51  999.94 1006.62 1012.77 1018.58 1024.19 1029.07 1034.10 1036.12 6999.00
  14  6999.00 1004.00 1008.97 1013.69 1018.87 1024.01 1029.48 1035.10 1039.33 6999.00
  15  6999.00 6999.00 1011.91 1015.10 1019.11 1022.39 6999.00 6999.00 6999.00 6999.00
1
  VOLUMETRIC BUDGET FOR ENTIRE MODEL AT END OF TIME STEP    5, STRESS PERIOD   1
  ------------------------------------------------------------------------------

     CUMULATIVE VOLUMES      L**3       RATES FOR THIS TIME STEP      L**3/T
     ------------------                 ------------------------

           IN:                                      IN:
           ---                                      ---
             STORAGE =   762358144.0000               STORAGE =          87.3575
       CONSTANT HEAD =           0.0000         CONSTANT HEAD =           0.0000
               WELLS =           0.0000                 WELLS =           0.0000
                  ET =           0.0000                    ET =           0.0000
     HEAD DEP BOUNDS =     1782862.5000       HEAD DEP BOUNDS =           0.2153
            RECHARGE =    14845998.0000              RECHARGE =           1.7937
      STREAM LEAKAGE =   377230400.0000        STREAM LEAKAGE =          47.2175

            TOTAL IN =  1156217344.0000              TOTAL IN =         136.5840

          OUT:                                     OUT:
          ----                                     ----
             STORAGE =     1653213.2500               STORAGE =       4.9356E-02
       CONSTANT HEAD =           0.0000         CONSTANT HEAD =           0.0000
               WELLS =   827651584.0000                 WELLS =         100.0000
                  ET =   250986512.0000                    ET =          27.9007
     HEAD DEP BOUNDS =     2049515.7500       HEAD DEP BOUNDS =           0.2474
            RECHARGE =           0.0000              RECHARGE =           0.0000
      STREAM LEAKAGE =    74022840.0000        STREAM LEAKAGE =           8.4067

           TOTAL OUT =  1156363776.0000             TOTAL OUT =         136.6040

            IN - OUT =     -146432.0000              IN - OUT =      -2.0050E-02

 PERCENT DISCREPANCY =          -0.01     PERCENT DISCREPANCY =          -0.01






         TIME SUMMARY AT END OF TIME STEP    5 IN STRESS PERIOD    1
                    SECONDS     MINUTES      HOURS       DAYS        YEARS
                    -----------------------------------------------------------
   TIME STEP LENGTH 1.98484E+06  33081.      551.34      22.973     6.28958E-02
 STRESS PERIOD TIME 8.27652E+06 1.37942E+05  2299.0      95.793     0.26227    
         TOTAL TIME 8.27652E+06 1.37942E+05  2299.0      95.793     0.26227    
1
 
 SOLVING FOR HEAD 
     7 ITERATIONS FOR TIME STEP   6 IN STRESS PERIOD    1

 MAXIMUM HEAD CHANGE FOR EACH ITERATION:

    HEAD CHANGE   HEAD CHANGE   HEAD CHANGE   HEAD CHANGE   HEAD CHANGE
  LAYER,ROW,COL LAYER,ROW,COL LAYER,ROW,COL LAYER,ROW,COL LAYER,ROW,COL
 ----------------------------------------------------------------------
     -1.592       -0.4016       -0.8949E-01   -0.1897E-01   -0.6240E-02
  (  1,  8,  4) (  1,  8,  4) (  1,  8,  4) (  1,  8,  4) (  1, 12,  7)
    -0.1844E-02   -0.4632E-03
  (  1, 12,  7) (  1, 12,  7)


 NO OUTPUT CONTROL FOR STRESS PERIOD    1   TIME STEP    6
 
 SOLVING FOR HEAD 
     7 ITERATIONS FOR TIME STEP   7 IN STRESS PERIOD    1

 MAXIMUM HEAD CHANGE FOR EACH ITERATION:

    HEAD CHANGE   HEAD CHANGE   HEAD CHANGE   HEAD CHANGE   HEAD CHANGE
  LAYER,ROW,COL LAYER,ROW,COL LAYER,ROW,COL LAYER,ROW,COL LAYER,ROW,COL
 ----------------------------------------------------------------------
     -1.517       -0.3965       -0.9028E-01   -0.1932E-01   -0.4947E-02
  (  1,  8,  4) (  1,  8,  4) (  1,  8,  4) (  1,  8,  4) (  1, 11,  7)
    -0.1323E-02   -0.3320E-03
  (  1, 11,  7) (  1, 11,  7)


 NO OUTPUT CONTROL FOR STRESS PERIOD    1   TIME STEP    7
 
 SOLVING FOR HEAD 
     7 ITERATIONS FOR TIME STEP   8 IN STRESS PERIOD    1

 MAXIMUM HEAD CHANGE FOR EACH ITERATION:

    HEAD CHANGE   HEAD CHANGE   HEAD CHANGE   HEAD CHANGE   HEAD CHANGE
  LAYER,ROW,COL LAYER,ROW,COL LAYER,ROW,COL LAYER,ROW,COL LAYER,ROW,COL
 ----------------------------------------------------------------------
     -1.450       -0.3941       -0.9229E-01   -0.2003E-01   -0.5999E-02
  (  1,  8,  4) (  1,  8,  4) (  1,  8,  5) (  1,  8,  5) (  1, 11,  7)
    -0.1563E-02   -0.4392E-03
  (  1, 11,  7) (  1, 11,  7)


 NO OUTPUT CONTROL FOR STRESS PERIOD    1   TIME STEP    8
 
 SOLVING FOR HEAD 
     7 ITERATIONS FOR TIME STEP   9 IN STRESS PERIOD    1

 MAXIMUM HEAD CHANGE FOR EACH ITERATION:

    HEAD CHANGE   HEAD CHANGE   HEAD CHANGE   HEAD CHANGE   HEAD CHANGE
  LAYER,ROW,COL LAYER,ROW,COL LAYER,ROW,COL LAYER,ROW,COL LAYER,ROW,COL
 ----------------------------------------------------------------------
     -1.392       -0.3949       -0.9658E-01   -0.2134E-01   -0.4563E-02
  (  1,  8,  4) (  1,  8,  4) (  1,  8,  5) (  1,  8,  5) (  1, 11,  7)
    -0.1095E-02   -0.3072E-03
  (  1, 11,  7) (  1, 11,  7)


 NO OUTPUT CONTROL FOR STRESS PERIOD    1   TIME STEP    9
 
 SOLVING FOR HEAD 
     7 ITERATIONS FOR TIME STEP  10 IN STRESS PERIOD    1

 MAXIMUM HEAD CHANGE FOR EACH ITERATION:

    HEAD CHANGE   HEAD CHANGE   HEAD CHANGE   HEAD CHANGE   HEAD CHANGE
  LAYER,ROW,COL LAYER,ROW,COL LAYER,ROW,COL LAYER,ROW,COL LAYER,ROW,COL
 ----------------------------------------------------------------------
     -1.343       -0.3992       -0.1032       -0.2296E-01   -0.5093E-02
  (  1,  8,  4) (  1,  8,  4) (  1,  8,  5) (  1,  8,  5) (  1, 10,  7)
    -0.1183E-02   -0.3306E-03
  (  1, 10,  7) (  1, 10,  7)


 OUTPUT CONTROL FOR STRESS PERIOD    1   TIME STEP   10
    PRINT BUDGET
    PRINT HEAD FOR ALL LAYERS
    SAVE BUDGET

            WELLS   PERIOD    1   STEP  10
 WELL      1   LAYER   1   ROW     6   COL     4   RATE   -10.00000    
 WELL      2   LAYER   1   ROW     6   COL     5   RATE   -10.00000    
 WELL      3   LAYER   1   ROW     7   COL     4   RATE   -10.00000    
 WELL      4   LAYER   1   ROW     7   COL     5   RATE   -10.00000    
 WELL      5   LAYER   1   ROW     8   COL     4   RATE   -10.00000    
 WELL      6   LAYER   1   ROW     8   COL     5   RATE   -10.00000    
 WELL      7   LAYER   1   ROW     9   COL     4   RATE   -10.00000    
 WELL      8   LAYER   1   ROW     9   COL     5   RATE   -10.00000    
 WELL      9   LAYER   1   ROW    10   COL     4   RATE   -10.00000    
 WELL     10   LAYER   1   ROW    10   COL     5   RATE   -10.00000    
 UBUDSV SAVING "              ET" ON UNIT 59 AT TIME STEP 10, STRESS PERIOD    1

  HEAD DEP BOUNDS   PERIOD    1   STEP  10
 BOUNDARY      1   LAYER   1   ROW    13   COL     1   RATE   -0.245871    
 BOUNDARY      2   LAYER   1   ROW    14   COL     9   RATE    0.215279    



 STREAM LISTING     PERIOD      1   STEP       10

 LAYER ROW COL. STREAM  RCH.  FLOW INTO     FLOW TO   FLOW OUT OF   OVRLND.     DIRECT     STREAM       STREAM     STREAM     STREAM   STREAMBED  STREAMBED
                SEG.NO.  NO.  STRM. RCH.    AQUIFER    STRM. RCH.    RUNOFF     PRECIP       ET          HEAD       DEPTH      WIDTH   CONDCTNC.   GRADIENT

   1    1    1     1     1    2.5000E+01  7.9806E-01   2.4202E+01  0.000E+00  0.000E+00  0.000E+00  1.09422E+03  1.174E+00  1.298E+01  5.842E-01  4.553E-01
   1    2    2     1     2    2.4202E+01  2.2510E+00   2.1951E+01  0.000E+00  0.000E+00  0.000E+00  1.08921E+03  1.151E+00  1.267E+01  8.869E-01  8.460E-01
   1    3    3     1     3    2.1951E+01  2.9833E+00   1.8968E+01  0.000E+00  0.000E+00  0.000E+00  1.08353E+03  1.108E+00  1.210E+01  7.262E-01  1.369E+00
   1    3    4     1     4    1.8968E+01  2.5453E+00   1.6422E+01  0.000E+00  0.000E+00  0.000E+00  1.07847E+03  1.062E+00  1.129E+01  6.266E-01  1.354E+00
   1    4    5     2     1    6.4223E+00  2.7017E+00   3.7207E+00  0.000E+00  0.000E+00  0.000E+00  1.07240E+03  4.637E-01  1.200E+01  7.800E-01  1.155E+00
   1    5    6     2     2    3.7207E+00  1.9916E+00   1.7290E+00  0.000E+00  0.000E+00  0.000E+00  1.06683E+03  3.194E-01  1.200E+01  6.000E-01  1.106E+00
   1    6    6     2     3    1.7290E+00  1.7290E+00   0.0000E+00  0.000E+00  0.000E+00  0.000E+00  1.06185E+03  5.470E-02  1.200E+01  6.000E-01  1.018E+00
   1    7    6     2     4    0.0000E+00  0.0000E+00   0.0000E+00  0.000E+00  0.000E+00  0.000E+00  1.05708E+03  0.000E+00  1.200E+01  6.000E-01  1.000E+00
   1    8    6     2     5    0.0000E+00  0.0000E+00   0.0000E+00  0.000E+00  0.000E+00  0.000E+00  1.05236E+03  0.000E+00  1.200E+01  6.000E-01  1.000E+00
   1    3    5     3     1    1.0000E+01  2.8252E+00   7.1748E+00  0.000E+00  0.000E+00  0.000E+00  1.07555E+03  1.909E+00  9.636E+00  7.227E-01  1.955E+00
   1    3    6     3     2    7.1748E+00  1.6934E+00   5.4814E+00  0.000E+00  0.000E+00  0.000E+00  1.07264E+03  1.727E+00  8.909E+00  6.682E-01  1.267E+00
   1    3    7     3     3    5.4814E+00  5.1492E-01   4.9665E+00  0.000E+00  0.000E+00  0.000E+00  1.06987E+03  1.555E+00  8.218E+00  5.547E-01  4.641E-01
   1    4    8     3     4    4.9665E+00  7.7294E-01   4.1935E+00  0.000E+00  0.000E+00  0.000E+00  1.06682E+03  1.364E+00  7.455E+00  6.709E-01  5.760E-01
   1    5    8     3     5    4.1935E+00  1.3355E+00   2.8580E+00  0.000E+00  0.000E+00  0.000E+00  1.06362E+03  1.164E+00  6.655E+00  4.991E-01  1.338E+00
   1    6    8     3     6    2.8580E+00  5.5980E-01   2.2982E+00  0.000E+00  0.000E+00  0.000E+00  1.06158E+03  1.036E+00  6.145E+00  1.844E-01  1.518E+00
   1    5   10     4     1    1.0000E+01  9.0525E-01   9.0947E+00  0.000E+00  0.000E+00  0.000E+00  1.07835E+03  6.210E-01  1.000E+01  2.500E-01  1.207E+00
   1    5    9     4     2    9.0947E+00  1.7835E+00   7.3113E+00  0.000E+00  0.000E+00  0.000E+00  1.07148E+03  5.670E-01  1.000E+01  5.000E-01  1.189E+00
   1    6    8     4     3    7.3113E+00  1.2257E+00   6.0855E+00  0.000E+00  0.000E+00  0.000E+00  1.06368E+03  5.021E-01  1.000E+01  3.500E-01  1.167E+00
   1    6    8     5     1    8.3837E+00  5.4233E-01   7.8414E+00  0.000E+00  0.000E+00  0.000E+00  1.05862E+03  6.242E-01  1.334E+01  5.338E-01  3.387E-01
   1    7    7     5     2    7.8414E+00  2.1462E+00   5.6952E+00  0.000E+00  0.000E+00  0.000E+00  1.05409E+03  5.859E-01  1.197E+01  5.985E-01  1.195E+00
   1    8    7     5     3    5.6952E+00  1.2441E+00   4.4512E+00  0.000E+00  0.000E+00  0.000E+00  1.04978E+03  5.297E-01  1.007E+01  3.525E-01  1.177E+00
   1    8    6     5     4    4.4512E+00  7.6940E-01   3.6818E+00  0.000E+00  0.000E+00  0.000E+00  1.04674E+03  4.902E-01  8.818E+00  2.204E-01  1.163E+00
   1    9    6     6     1    3.6818E+00  1.9921E+00   1.6896E+00  0.000E+00  0.000E+00  0.000E+00  1.04305E+03  3.202E-01  1.200E+01  6.000E-01  1.107E+00
   1   10    7     6     2    1.6896E+00  1.6896E+00   0.0000E+00  0.000E+00  0.000E+00  0.000E+00  1.03824E+03  5.456E-02  1.200E+01  6.000E-01  1.018E+00
   1   11    7     6     3    0.0000E+00  0.0000E+00   0.0000E+00  0.000E+00  0.000E+00  0.000E+00  1.03364E+03  0.000E+00  1.200E+01  6.000E-01  1.000E+00
   1   12    7     6     4    0.0000E+00  0.0000E+00   0.0000E+00  0.000E+00  0.000E+00  0.000E+00  1.02909E+03  0.000E+00  1.200E+01  6.000E-01  7.111E-01
   1   13    7     6     5    0.0000E+00 -7.0417E-01   7.0417E-01  0.000E+00  0.000E+00  0.000E+00  1.02600E+03  9.462E-02  1.200E+01  2.400E-01 -9.780E-01
   1   14    9     7     1    1.5000E+02  2.9594E+00   1.4704E+02  0.000E+00  0.000E+00  0.000E+00  1.03986E+03  2.283E+00  5.528E+01  5.591E+00  1.764E-01
   1   13    8     7     2    1.4704E+02  4.1698E+00   1.4287E+02  0.000E+00  0.000E+00  0.000E+00  1.03476E+03  2.264E+00  5.519E+01  6.140E+00  2.264E-01
   1   13    7     7     3    1.4287E+02  4.0321E+00   1.3884E+02  0.000E+00  0.000E+00  0.000E+00  1.02966E+03  2.242E+00  5.509E+01  5.571E+00  2.413E-01
   1   13    6     8     1    1.3954E+02  2.6115E+00   1.3693E+02  0.000E+00  0.000E+00  0.000E+00  1.02461E+03  2.732E+00  3.961E+01  4.037E+00  2.156E-01
   1   13    5     8     2    1.3693E+02  2.8060E-01   1.3665E+02  0.000E+00  0.000E+00  0.000E+00  1.01835E+03  2.721E+00  3.946E+01  4.021E+00  2.326E-02
   1   13    4     8     3    1.3665E+02 -1.5630E+00   1.3821E+02  0.000E+00  0.000E+00  0.000E+00  1.01210E+03  2.726E+00  3.953E+01  4.028E+00 -1.294E-01
   1   13    3     8     4    1.3821E+02 -2.4116E+00   1.4063E+02  0.000E+00  0.000E+00  0.000E+00  1.00587E+03  2.741E+00  3.974E+01  4.050E+00 -1.985E-01
   1   13    2     8     5    1.4063E+02 -1.0425E+00   1.4167E+02  0.000E+00  0.000E+00  0.000E+00  9.99628E+02  2.753E+00  3.992E+01  4.068E+00 -8.542E-02
   1   13    1     8     6    1.4167E+02  3.9185E-01   1.4128E+02  0.000E+00  0.000E+00  0.000E+00  9.94631E+02  2.756E+00  3.996E+01  2.443E+00  5.346E-02



1
              HEAD IN LAYER   1 AT END OF TIME STEP  10 IN STRESS PERIOD    1
  ---------------------------------------------------------------------------

           1       2       3       4       5       6       7       8       9      10
 ...................................................................................
   1  1092.86 1089.41 6999.00 6999.00 6999.00 6999.00 6999.00 6999.00 6999.00 6999.00
   2  1089.87 1086.67 1081.07 6999.00 6999.00 1071.86 1071.18 1070.85 6999.00 6999.00
   3  6999.00 1079.05 1076.48 1071.70 1071.54 1070.10 1068.94 1068.40 6999.00 6999.00
   4  1068.76 1069.84 1067.91 1062.93 1061.51 1060.67 1062.39 1065.67 1065.88 6999.00
   5  1064.47 1062.25 1058.00 1053.18 1053.41 1056.05 1057.56 1060.94 1065.26 1067.98
   6  1059.22 1055.48 1048.40 1040.13 1042.01 1049.40 1053.63 1057.61 1061.44 1065.50
   7  1055.43 1049.49 1040.76 1031.06 1033.80 1042.63 1049.09 1053.39 1056.03 6999.00
   8  6999.00 1042.61 1034.24 1023.98 1027.30 1036.65 1042.48 1047.94 1050.09 6999.00
   9  6999.00 1035.71 1028.43 1019.03 1022.67 1031.79 1036.40 1041.09 1043.77 6999.00
  10  6999.00 1028.60 1023.65 1016.96 1020.33 1027.97 1032.40 1036.13 1039.06 1041.56
  11  6999.00 1020.18 1019.13 1019.24 1021.87 1026.04 1028.98 1032.50 1035.52 6999.00
  12  1001.10 1008.76 1013.07 1016.80 1020.36 1024.14 1026.96 1029.95 1034.22 6999.00
  13   994.47  999.88 1006.46 1012.49 1018.28 1023.96 1028.94 1034.09 1036.12 6999.00
  14  6999.00 1003.99 1008.89 1013.58 1018.75 1023.93 1029.43 1035.09 1039.33 6999.00
  15  6999.00 6999.00 1011.90 1015.08 1019.10 1022.38 6999.00 6999.00 6999.00 6999.00
1
  VOLUMETRIC BUDGET FOR ENTIRE MODEL AT END OF TIME STEP   10, STRESS PERIOD   1
  ------------------------------------------------------------------------------

     CUMULATIVE VOLUMES      L**3       RATES FOR THIS TIME STEP      L**3/T
     ------------------                 ------------------------

           IN:                                      IN:
           ---                                      ---
             STORAGE =  1840155136.0000               STORAGE =          77.3951
       CONSTANT HEAD =           0.0000         CONSTANT HEAD =           0.0000
               WELLS =           0.0000                 WELLS =           0.0000
                  ET =           0.0000                    ET =           0.0000
     HEAD DEP BOUNDS =     4652315.0000       HEAD DEP BOUNDS =           0.2153
            RECHARGE =    38755632.0000              RECHARGE =           1.7937
      STREAM LEAKAGE =  1024299136.0000        STREAM LEAKAGE =          49.4452

            TOTAL IN =  2907862272.0000              TOTAL IN =         128.8494

          OUT:                                     OUT:
          ----                                     ----
             STORAGE =     1744137.2500               STORAGE =           0.0000
       CONSTANT HEAD =           0.0000         CONSTANT HEAD =           0.0000
               WELLS =  2160592896.0000                 WELLS =         100.0000
                  ET =   577561728.0000                    ET =          22.8855
     HEAD DEP BOUNDS =     5334268.0000       HEAD DEP BOUNDS =           0.2459
            RECHARGE =           0.0000              RECHARGE =           0.0000
      STREAM LEAKAGE =   162855264.0000        STREAM LEAKAGE =           5.7213

           TOTAL OUT =  2908088320.0000             TOTAL OUT =         128.8527

            IN - OUT =     -226048.0000              IN - OUT =      -3.2806E-03

 PERCENT DISCREPANCY =          -0.01     PERCENT DISCREPANCY =          -0.00






         TIME SUMMARY AT END OF TIME STEP   10 IN STRESS PERIOD    1
                    SECONDS     MINUTES      HOURS       DAYS        YEARS
                    -----------------------------------------------------------
   TIME STEP LENGTH 3.19660E+06  53277.      887.95      36.998     0.10129    
 STRESS PERIOD TIME 2.16059E+07 3.60099E+05  6001.6      250.07     0.68465    
         TOTAL TIME 2.16059E+07 3.60099E+05  6001.6      250.07     0.68465    
1
 
 SOLVING FOR HEAD 
     7 ITERATIONS FOR TIME STEP  11 IN STRESS PERIOD    1

 MAXIMUM HEAD CHANGE FOR EACH ITERATION:

    HEAD CHANGE   HEAD CHANGE   HEAD CHANGE   HEAD CHANGE   HEAD CHANGE
  LAYER,ROW,COL LAYER,ROW,COL LAYER,ROW,COL LAYER,ROW,COL LAYER,ROW,COL
 ----------------------------------------------------------------------
     -1.332       -0.4084       -0.1111       -0.2514E-01   -0.6436E-02
  (  1,  8,  3) (  1,  8,  5) (  1,  8,  5) (  1,  8,  5) (  1, 10,  7)
    -0.1532E-02   -0.4455E-03
  (  1, 10,  7) (  1, 10,  7)


 NO OUTPUT CONTROL FOR STRESS PERIOD    1   TIME STEP   11
 
 SOLVING FOR HEAD 
     7 ITERATIONS FOR TIME STEP  12 IN STRESS PERIOD    1

 MAXIMUM HEAD CHANGE FOR EACH ITERATION:

    HEAD CHANGE   HEAD CHANGE   HEAD CHANGE   HEAD CHANGE   HEAD CHANGE
  LAYER,ROW,COL LAYER,ROW,COL LAYER,ROW,COL LAYER,ROW,COL LAYER,ROW,COL
 ----------------------------------------------------------------------
     -1.351       -0.4264       -0.1201       -0.2765E-01   -0.6535E-02
  (  1,  8,  3) (  1,  8,  5) (  1,  8,  5) (  1,  8,  5) (  1, 10,  7)
    -0.1512E-02   -0.4340E-03
  (  1, 10,  7) (  1, 10,  7)


 NO OUTPUT CONTROL FOR STRESS PERIOD    1   TIME STEP   12
 
 SOLVING FOR HEAD 
     7 ITERATIONS FOR TIME STEP  13 IN STRESS PERIOD    1

 MAXIMUM HEAD CHANGE FOR EACH ITERATION:

    HEAD CHANGE   HEAD CHANGE   HEAD CHANGE   HEAD CHANGE   HEAD CHANGE
  LAYER,ROW,COL LAYER,ROW,COL LAYER,ROW,COL LAYER,ROW,COL LAYER,ROW,COL
 ----------------------------------------------------------------------
     -1.365       -0.4464       -0.1306       -0.3071E-01   -0.7466E-02
  (  1,  8,  3) (  1,  8,  5) (  1,  8,  5) (  1,  8,  5) (  1, 10,  7)
    -0.1766E-02   -0.5125E-03
  (  1, 10,  7) (  1, 10,  7)


 OUTPUT CONTROL FOR STRESS PERIOD    1   TIME STEP   13
    PRINT BUDGET
    PRINT HEAD FOR ALL LAYERS
    SAVE BUDGET

            WELLS   PERIOD    1   STEP  13
 WELL      1   LAYER   1   ROW     6   COL     4   RATE   -10.00000    
 WELL      2   LAYER   1   ROW     6   COL     5   RATE   -10.00000    
 WELL      3   LAYER   1   ROW     7   COL     4   RATE   -10.00000    
 WELL      4   LAYER   1   ROW     7   COL     5   RATE   -10.00000    
 WELL      5   LAYER   1   ROW     8   COL     4   RATE   -10.00000    
 WELL      6   LAYER   1   ROW     8   COL     5   RATE   -10.00000    
 WELL      7   LAYER   1   ROW     9   COL     4   RATE   -10.00000    
 WELL      8   LAYER   1   ROW     9   COL     5   RATE   -10.00000    
 WELL      9   LAYER   1   ROW    10   COL     4   RATE   -10.00000    
 WELL     10   LAYER   1   ROW    10   COL     5   RATE   -10.00000    
 UBUDSV SAVING "              ET" ON UNIT 59 AT TIME STEP 13, STRESS PERIOD    1

  HEAD DEP BOUNDS   PERIOD    1   STEP  13
 BOUNDARY      1   LAYER   1   ROW    13   COL     1   RATE   -0.244627    
 BOUNDARY      2   LAYER   1   ROW    14   COL     9   RATE    0.215324    



 STREAM LISTING     PERIOD      1   STEP       13

 LAYER ROW COL. STREAM  RCH.  FLOW INTO     FLOW TO   FLOW OUT OF   OVRLND.     DIRECT     STREAM       STREAM     STREAM     STREAM   STREAMBED  STREAMBED
                SEG.NO.  NO.  STRM. RCH.    AQUIFER    STRM. RCH.    RUNOFF     PRECIP       ET          HEAD       DEPTH      WIDTH   CONDCTNC.   GRADIENT

   1    1    1     1     1    2.5000E+01  8.0498E-01   2.4195E+01  0.000E+00  0.000E+00  0.000E+00  1.09422E+03  1.174E+00  1.298E+01  5.842E-01  4.593E-01
   1    2    2     1     2    2.4195E+01  2.4189E+00   2.1776E+01  0.000E+00  0.000E+00  0.000E+00  1.08921E+03  1.149E+00  1.265E+01  8.856E-01  9.104E-01
   1    3    3     1     3    2.1776E+01  2.9718E+00   1.8804E+01  0.000E+00  0.000E+00  0.000E+00  1.08352E+03  1.105E+00  1.207E+01  7.240E-01  1.368E+00
   1    3    4     1     4    1.8804E+01  2.5323E+00   1.6272E+01  0.000E+00  0.000E+00  0.000E+00  1.07847E+03  1.059E+00  1.124E+01  6.239E-01  1.353E+00
   1    4    5     2     1    6.2720E+00  2.6953E+00   3.5767E+00  0.000E+00  0.000E+00  0.000E+00  1.07239E+03  4.556E-01  1.200E+01  7.800E-01  1.152E+00
   1    5    6     2     2    3.5767E+00  1.9856E+00   1.5910E+00  0.000E+00  0.000E+00  0.000E+00  1.06682E+03  3.094E-01  1.200E+01  6.000E-01  1.103E+00
   1    6    6     2     3    1.5910E+00  1.5910E+00   0.0000E+00  0.000E+00  0.000E+00  0.000E+00  1.06184E+03  5.204E-02  1.200E+01  6.000E-01  1.017E+00
   1    7    6     2     4    0.0000E+00  0.0000E+00   0.0000E+00  0.000E+00  0.000E+00  0.000E+00  1.05708E+03  0.000E+00  1.200E+01  6.000E-01  1.000E+00
   1    8    6     2     5    0.0000E+00  0.0000E+00   0.0000E+00  0.000E+00  0.000E+00  0.000E+00  1.05236E+03  0.000E+00  1.200E+01  6.000E-01  1.000E+00
   1    3    5     3     1    1.0000E+01  2.8252E+00   7.1748E+00  0.000E+00  0.000E+00  0.000E+00  1.07555E+03  1.909E+00  9.636E+00  7.227E-01  1.955E+00
   1    3    6     3     2    7.1748E+00  2.0609E+00   5.1139E+00  0.000E+00  0.000E+00  0.000E+00  1.07264E+03  1.727E+00  8.909E+00  6.682E-01  1.542E+00
   1    3    7     3     3    5.1139E+00  6.6840E-01   4.4455E+00  0.000E+00  0.000E+00  0.000E+00  1.06987E+03  1.555E+00  8.218E+00  5.547E-01  6.025E-01
   1    4    8     3     4    4.4455E+00  9.9826E-01   3.4472E+00  0.000E+00  0.000E+00  0.000E+00  1.06682E+03  1.364E+00  7.455E+00  6.709E-01  7.440E-01
   1    5    8     3     5    3.4472E+00  1.5790E+00   1.8683E+00  0.000E+00  0.000E+00  0.000E+00  1.06362E+03  1.164E+00  6.655E+00  4.991E-01  1.582E+00
   1    6    8     3     6    1.8683E+00  5.5980E-01   1.3085E+00  0.000E+00  0.000E+00  0.000E+00  1.06158E+03  1.036E+00  6.145E+00  1.844E-01  1.518E+00
   1    5   10     4     1    1.0000E+01  9.0525E-01   9.0947E+00  0.000E+00  0.000E+00  0.000E+00  1.07835E+03  6.210E-01  1.000E+01  2.500E-01  1.207E+00
   1    5    9     4     2    9.0947E+00  1.7835E+00   7.3113E+00  0.000E+00  0.000E+00  0.000E+00  1.07148E+03  5.670E-01  1.000E+01  5.000E-01  1.189E+00
   1    6    8     4     3    7.3113E+00  1.2257E+00   6.0855E+00  0.000E+00  0.000E+00  0.000E+00  1.06368E+03  5.021E-01  1.000E+01  3.500E-01  1.167E+00
   1    6    8     5     1    7.3940E+00  1.2466E+00   6.1474E+00  0.000E+00  0.000E+00  0.000E+00  1.05859E+03  5.860E-01  1.197E+01  4.789E-01  8.676E-01
   1    7    7     5     2    6.1474E+00  1.8149E+00   4.3325E+00  0.000E+00  0.000E+00  0.000E+00  1.05404E+03  5.357E-01  1.027E+01  5.133E-01  1.179E+00
[...]
   1    5    6     2     2    3.8086E+00  1.9953E+00   1.8133E+00  0.000E+00  0.000E+00  0.000E+00  1.06683E+03  3.254E-01  1.200E+01  6.000E-01  1.108E+00
   1    6    6     2     3    1.8133E+00  1.8133E+00   0.0000E+00  0.000E+00  0.000E+00  0.000E+00  1.06185E+03  5.628E-02  1.200E+01  6.000E-01  1.019E+00
   1    7    6     2     4    0.0000E+00  0.0000E+00   0.0000E+00  0.000E+00  0.000E+00  0.000E+00  1.05708E+03  0.000E+00  1.200E+01  6.000E-01  1.000E+00
   1    8    6     2     5    0.0000E+00  0.0000E+00   0.0000E+00  0.000E+00  0.000E+00  0.000E+00  1.05236E+03  0.000E+00  1.200E+01  6.000E-01  1.000E+00
   1    3    5     3     1    1.0000E+01  2.1909E+00   7.8091E+00  0.000E+00  0.000E+00  0.000E+00  1.07555E+03  1.909E+00  9.636E+00  7.227E-01  1.516E+00
   1    3    6     3     2    7.8091E+00  1.3768E+00   6.4323E+00  0.000E+00  0.000E+00  0.000E+00  1.07264E+03  1.727E+00  8.909E+00  6.682E-01  1.030E+00
   1    3    7     3     3    6.4323E+00  4.2210E-01   6.0102E+00  0.000E+00  0.000E+00  0.000E+00  1.06987E+03  1.555E+00  8.218E+00  5.547E-01  3.805E-01
   1    4    8     3     4    6.0102E+00  6.1078E-01   5.3995E+00  0.000E+00  0.000E+00  0.000E+00  1.06682E+03  1.364E+00  7.455E+00  6.709E-01  4.552E-01
   1    5    8     3     5    5.3995E+00  8.0330E-01   4.5962E+00  0.000E+00  0.000E+00  0.000E+00  1.06362E+03  1.164E+00  6.655E+00  4.991E-01  8.048E-01
   1    6    8     3     6    4.5962E+00  4.5906E-01   4.1371E+00  0.000E+00  0.000E+00  0.000E+00  1.06158E+03  1.036E+00  6.145E+00  1.844E-01  1.245E+00
   1    5   10     4     1    1.0000E+01  9.0525E-01   9.0947E+00  0.000E+00  0.000E+00  0.000E+00  1.07835E+03  6.210E-01  1.000E+01  2.500E-01  1.207E+00
   1    5    9     4     2    9.0947E+00  1.7835E+00   7.3113E+00  0.000E+00  0.000E+00  0.000E+00  1.07148E+03  5.670E-01  1.000E+01  5.000E-01  1.189E+00
   1    6    8     4     3    7.3113E+00  1.2257E+00   6.0855E+00  0.000E+00  0.000E+00  0.000E+00  1.06368E+03  5.021E-01  1.000E+01  3.500E-01  1.167E+00
   1    6    8     5     1    1.0223E+01 -2.5454E-01   1.0477E+01  0.000E+00  0.000E+00  0.000E+00  1.05868E+03  6.797E-01  1.544E+01  6.177E-01 -1.374E-01
   1    7    7     5     2    1.0477E+01  7.4314E-01   9.7341E+00  0.000E+00  0.000E+00  0.000E+00  1.05417E+03  6.741E-01  1.522E+01  7.612E-01  3.254E-01
   1    8    7     5     3    9.7341E+00  1.0443E+00   8.6898E+00  0.000E+00  0.000E+00  0.000E+00  1.04990E+03  6.526E-01  1.440E+01  5.040E-01  6.906E-01
   1    8    6     5     4    8.6898E+00  1.5064E-01   8.5392E+00  0.000E+00  0.000E+00  0.000E+00  1.04689E+03  6.374E-01  1.383E+01  3.458E-01  1.452E-01
   1    9    6     6     1    8.5392E+00  1.3743E+00   7.1648E+00  0.000E+00  0.000E+00  0.000E+00  1.04334E+03  6.094E-01  1.200E+01  6.000E-01  7.635E-01
   1   10    7     6     2    7.1648E+00  1.3304E+00   5.8344E+00  0.000E+00  0.000E+00  0.000E+00  1.03873E+03  5.441E-01  1.200E+01  6.000E-01  7.391E-01
   1   11    7     6     3    5.8344E+00  1.2160E+00   4.6184E+00  0.000E+00  0.000E+00  0.000E+00  1.03411E+03  4.774E-01  1.200E+01  6.000E-01  6.756E-01
   1   12    7     6     4    4.6184E+00  5.6871E-01   4.0497E+00  0.000E+00  0.000E+00  0.000E+00  1.02952E+03  4.266E-01  1.200E+01  6.000E-01  3.160E-01
   1   13    7     6     5    4.0497E+00 -6.6119E-01   4.7109E+00  0.000E+00  0.000E+00  0.000E+00  1.02634E+03  4.293E-01  1.200E+01  2.400E-01 -9.183E-01
   1   14    9     7     1    1.5000E+02  2.9561E+00   1.4704E+02  0.000E+00  0.000E+00  0.000E+00  1.03986E+03  2.283E+00  5.528E+01  5.591E+00  1.762E-01
   1   13    8     7     2    1.4704E+02  4.0552E+00   1.4299E+02  0.000E+00  0.000E+00  0.000E+00  1.03476E+03  2.265E+00  5.519E+01  6.140E+00  2.202E-01
   1   13    7     7     3    1.4299E+02  3.1824E+00   1.3981E+02  0.000E+00  0.000E+00  0.000E+00  1.02966E+03  2.245E+00  5.510E+01  5.572E+00  1.904E-01
   1   13    6     8     1    1.4452E+02  1.5689E+00   1.4295E+02  0.000E+00  0.000E+00  0.000E+00  1.02465E+03  2.772E+00  4.020E+01  4.096E+00  1.277E-01
   1   13    5     8     2    1.4295E+02 -1.2533E+00   1.4420E+02  0.000E+00  0.000E+00  0.000E+00  1.01840E+03  2.771E+00  4.018E+01  4.094E+00 -1.020E-01
   1   13    4     8     3    1.4420E+02 -2.9656E+00   1.4717E+02  0.000E+00  0.000E+00  0.000E+00  1.01216E+03  2.786E+00  4.040E+01  4.117E+00 -2.401E-01
   1   13    3     8     4    1.4717E+02 -3.0500E+00   1.5022E+02  0.000E+00  0.000E+00  0.000E+00  1.00593E+03  2.808E+00  4.071E+01  4.149E+00 -2.451E-01
   1   13    2     8     5    1.5022E+02 -1.1118E+00   1.5133E+02  0.000E+00  0.000E+00  0.000E+00  9.99697E+02  2.822E+00  4.092E+01  4.170E+00 -8.887E-02
   1   13    1     8     6    1.5133E+02  4.1328E-01   1.5092E+02  0.000E+00  0.000E+00  0.000E+00  9.94700E+02  2.825E+00  4.096E+01  2.504E+00  5.501E-02



1
              HEAD IN LAYER   1 AT END OF TIME STEP  49 IN STRESS PERIOD    2
  ---------------------------------------------------------------------------

           1       2       3       4       5       6       7       8       9      10
 ...................................................................................
   1  1092.86 1089.46 6999.00 6999.00 6999.00 6999.00 6999.00 6999.00 6999.00 6999.00
   2  1089.90 1086.79 1081.55 6999.00 6999.00 1071.52 1070.80 1070.42 6999.00 6999.00
   3  6999.00 1079.49 1077.67 1073.69 1072.51 1070.58 1069.11 1068.36 6999.00 6999.00
   4  1068.73 1070.58 1070.26 1067.09 1065.47 1063.62 1063.86 1065.91 1065.93 6999.00
   5  1064.71 1063.92 1062.96 1061.51 1060.81 1060.76 1060.21 1062.01 1065.65 1068.08
   6  1059.81 1058.37 1057.21 1056.43 1056.29 1056.90 1057.20 1059.09 1061.89 1065.54
   7  1056.21 1053.10 1051.78 1051.21 1051.26 1051.86 1053.20 1055.46 1056.47 6999.00
   8  6999.00 1046.36 1045.77 1045.55 1045.75 1046.45 1047.83 1049.84 1050.39 6999.00
   9  6999.00 1039.09 1039.14 1039.49 1040.04 1041.05 1041.64 1042.85 1044.03 6999.00
  10  6999.00 1031.10 1031.79 1033.26 1034.32 1035.44 1036.51 1037.62 1039.30 1041.53
  11  6999.00 1021.44 1023.10 1026.84 1028.70 1030.49 1032.09 1033.55 1035.69 6999.00
  12  1001.17 1009.24 1014.52 1019.62 1023.14 1026.18 1028.57 1030.37 1034.29 6999.00
  13   994.53  999.96 1006.67 1012.88 1018.70 1024.26 1029.09 1034.10 1036.13 6999.00
  14  6999.00 1004.01 1008.95 1013.70 1018.89 1024.03 1029.48 1035.09 1039.34 6999.00
  15  6999.00 6999.00 1011.92 1015.10 1019.13 1022.39 6999.00 6999.00 6999.00 6999.00
1
  VOLUMETRIC BUDGET FOR ENTIRE MODEL AT END OF TIME STEP   49, STRESS PERIOD   2
  ------------------------------------------------------------------------------

     CUMULATIVE VOLUMES      L**3       RATES FOR THIS TIME STEP      L**3/T
     ------------------                 ------------------------

           IN:                                      IN:
           ---                                      ---
             STORAGE = 30236489728.0000               STORAGE =           0.0000
       CONSTANT HEAD =           0.0000         CONSTANT HEAD =           0.0000
               WELLS =           0.0000                 WELLS =           0.0000
                  ET =           0.0000                    ET =           0.0000
     HEAD DEP BOUNDS =   653389504.0000       HEAD DEP BOUNDS =           0.2153
            RECHARGE =  5401132544.0000              RECHARGE =           1.7937
      STREAM LEAKAGE =225486520320.0000        STREAM LEAKAGE =          43.3806

            TOTAL IN =261777539072.0000              TOTAL IN =          45.3896

          OUT:                                     OUT:
          ----                                     ----
             STORAGE = 30233024512.0000               STORAGE =       2.3199E-02
       CONSTANT HEAD =           0.0000         CONSTANT HEAD =           0.0000
               WELLS =157788012544.0000                 WELLS =           0.0000
                  ET = 63183618048.0000                    ET =          35.8199
     HEAD DEP BOUNDS =   699997696.0000       HEAD DEP BOUNDS =           0.2483
            RECHARGE =           0.0000              RECHARGE =           0.0000
      STREAM LEAKAGE =  9873600512.0000        STREAM LEAKAGE =           9.2964

           TOTAL OUT =261778243584.0000             TOTAL OUT =          45.3878

            IN - OUT =     -704512.0000              IN - OUT =       1.8616E-03

 PERCENT DISCREPANCY =          -0.00     PERCENT DISCREPANCY =           0.00






         TIME SUMMARY AT END OF TIME STEP   49 IN STRESS PERIOD    2
                    SECONDS     MINUTES      HOURS       DAYS        YEARS
                    -----------------------------------------------------------
   TIME STEP LENGTH 1.31524E+08 2.19206E+06  36534.      1522.3      4.1677    
 STRESS PERIOD TIME 1.43320E+09 2.38867E+07 3.98112E+05  16588.      45.415    
         TOTAL TIME 3.01108E+09 5.01847E+07 8.36412E+05  34851.      95.415    
1
 
 SOLVING FOR HEAD 
     5 ITERATIONS FOR TIME STEP  50 IN STRESS PERIOD    2

 MAXIMUM HEAD CHANGE FOR EACH ITERATION:

    HEAD CHANGE   HEAD CHANGE   HEAD CHANGE   HEAD CHANGE   HEAD CHANGE
  LAYER,ROW,COL LAYER,ROW,COL LAYER,ROW,COL LAYER,ROW,COL LAYER,ROW,COL
 ----------------------------------------------------------------------
     0.2592E-01    0.6964E-02    0.2631E-02    0.8614E-03    0.3386E-03
  (  1, 10, 10) (  1,  6,  1) (  1,  6,  1) (  1,  6,  1) (  1, 10, 10)


 OUTPUT CONTROL FOR STRESS PERIOD    2   TIME STEP   50
    PRINT BUDGET
    PRINT HEAD FOR ALL LAYERS
    SAVE BUDGET
 UBUDSV SAVING "              ET" ON UNIT 59 AT TIME STEP 50, STRESS PERIOD    2

  HEAD DEP BOUNDS   PERIOD    2   STEP  50
 BOUNDARY      1   LAYER   1   ROW    13   COL     1   RATE   -0.248319    
 BOUNDARY      2   LAYER   1   ROW    14   COL     9   RATE    0.215257    



 STREAM LISTING     PERIOD      2   STEP       50

 LAYER ROW COL. STREAM  RCH.  FLOW INTO     FLOW TO   FLOW OUT OF   OVRLND.     DIRECT     STREAM       STREAM     STREAM     STREAM   STREAMBED  STREAMBED
                SEG.NO.  NO.  STRM. RCH.    AQUIFER    STRM. RCH.    RUNOFF     PRECIP       ET          HEAD       DEPTH      WIDTH   CONDCTNC.   GRADIENT

   1    1    1     1     1    2.5000E+01  7.9321E-01   2.4207E+01  0.000E+00  0.000E+00  0.000E+00  1.09422E+03  1.174E+00  1.298E+01  5.842E-01  4.526E-01
   1    2    2     1     2    2.4207E+01  2.1480E+00   2.2059E+01  0.000E+00  0.000E+00  0.000E+00  1.08921E+03  1.152E+00  1.268E+01  8.878E-01  8.065E-01
   1    3    3     1     3    2.2059E+01  2.9904E+00   1.9068E+01  0.000E+00  0.000E+00  0.000E+00  1.08353E+03  1.110E+00  1.213E+01  7.276E-01  1.370E+00
   1    3    4     1     4    1.9068E+01  2.5532E+00   1.6515E+01  0.000E+00  0.000E+00  0.000E+00  1.07847E+03  1.063E+00  1.132E+01  6.284E-01  1.354E+00
   1    4    5     2     1    6.5152E+00  2.7056E+00   3.8096E+00  0.000E+00  0.000E+00  0.000E+00  1.07240E+03  4.687E-01  1.200E+01  7.800E-01  1.156E+00
   1    5    6     2     2    3.8096E+00  1.9953E+00   1.8143E+00  0.000E+00  0.000E+00  0.000E+00  1.06683E+03  3.255E-01  1.200E+01  6.000E-01  1.108E+00
   1    6    6     2     3    1.8143E+00  1.8143E+00   0.0000E+00  0.000E+00  0.000E+00  0.000E+00  1.06185E+03  5.631E-02  1.200E+01  6.000E-01  1.019E+00
   1    7    6     2     4    0.0000E+00  0.0000E+00   0.0000E+00  0.000E+00  0.000E+00  0.000E+00  1.05708E+03  0.000E+00  1.200E+01  6.000E-01  1.000E+00
   1    8    6     2     5    0.0000E+00  0.0000E+00   0.0000E+00  0.000E+00  0.000E+00  0.000E+00  1.05236E+03  0.000E+00  1.200E+01  6.000E-01  1.000E+00
   1    3    5     3     1    1.0000E+01  2.1902E+00   7.8098E+00  0.000E+00  0.000E+00  0.000E+00  1.07555E+03  1.909E+00  9.636E+00  7.227E-01  1.515E+00
   1    3    6     3     2    7.8098E+00  1.3765E+00   6.4334E+00  0.000E+00  0.000E+00  0.000E+00  1.07264E+03  1.727E+00  8.909E+00  6.682E-01  1.030E+00
   1    3    7     3     3    6.4334E+00  4.2186E-01   6.0115E+00  0.000E+00  0.000E+00  0.000E+00  1.06987E+03  1.555E+00  8.218E+00  5.547E-01  3.802E-01
   1    4    8     3     4    6.0115E+00  6.1051E-01   5.4010E+00  0.000E+00  0.000E+00  0.000E+00  1.06682E+03  1.364E+00  7.455E+00  6.709E-01  4.550E-01
   1    5    8     3     5    5.4010E+00  8.0285E-01   4.5982E+00  0.000E+00  0.000E+00  0.000E+00  1.06362E+03  1.164E+00  6.655E+00  4.991E-01  8.043E-01
   1    6    8     3     6    4.5982E+00  4.5890E-01   4.1393E+00  0.000E+00  0.000E+00  0.000E+00  1.06158E+03  1.036E+00  6.145E+00  1.844E-01  1.245E+00
   1    5   10     4     1    1.0000E+01  9.0525E-01   9.0947E+00  0.000E+00  0.000E+00  0.000E+00  1.07835E+03  6.210E-01  1.000E+01  2.500E-01  1.207E+00
   1    5    9     4     2    9.0947E+00  1.7835E+00   7.3113E+00  0.000E+00  0.000E+00  0.000E+00  1.07148E+03  5.670E-01  1.000E+01  5.000E-01  1.189E+00
   1    6    8     4     3    7.3113E+00  1.2257E+00   6.0855E+00  0.000E+00  0.000E+00  0.000E+00  1.06368E+03  5.021E-01  1.000E+01  3.500E-01  1.167E+00
   1    6    8     5     1    1.0225E+01 -2.5508E-01   1.0480E+01  0.000E+00  0.000E+00  0.000E+00  1.05868E+03  6.798E-01  1.545E+01  6.178E-01 -1.376E-01
   1    7    7     5     2    1.0480E+01  7.4251E-01   9.7374E+00  0.000E+00  0.000E+00  0.000E+00  1.05417E+03  6.742E-01  1.523E+01  7.613E-01  3.251E-01
   1    8    7     5     3    9.7374E+00  1.0440E+00   8.6934E+00  0.000E+00  0.000E+00  0.000E+00  1.04990E+03  6.527E-01  1.440E+01  5.042E-01  6.902E-01
   1    8    6     5     4    8.6934E+00  1.5029E-01   8.5431E+00  0.000E+00  0.000E+00  0.000E+00  1.04689E+03  6.376E-01  1.384E+01  3.459E-01  1.448E-01
   1    9    6     6     1    8.5431E+00  1.3739E+00   7.1692E+00  0.000E+00  0.000E+00  0.000E+00  1.04334E+03  6.097E-01  1.200E+01  6.000E-01  7.633E-01
   1   10    7     6     2    7.1692E+00  1.3300E+00   5.8393E+00  0.000E+00  0.000E+00  0.000E+00  1.03873E+03  5.443E-01  1.200E+01  6.000E-01  7.389E-01
   1   11    7     6     3    5.8393E+00  1.2158E+00   4.6235E+00  0.000E+00  0.000E+00  0.000E+00  1.03411E+03  4.777E-01  1.200E+01  6.000E-01  6.754E-01
   1   12    7     6     4    4.6235E+00  5.6868E-01   4.0548E+00  0.000E+00  0.000E+00  0.000E+00  1.02952E+03  4.270E-01  1.200E+01  6.000E-01  3.159E-01
   1   13    7     6     5    4.0548E+00 -6.6112E-01   4.7160E+00  0.000E+00  0.000E+00  0.000E+00  1.02634E+03  4.297E-01  1.200E+01  2.400E-01 -9.182E-01
   1   14    9     7     1    1.5000E+02  2.9562E+00   1.4704E+02  0.000E+00  0.000E+00  0.000E+00  1.03986E+03  2.283E+00  5.528E+01  5.591E+00  1.762E-01
   1   13    8     7     2    1.4704E+02  4.0548E+00   1.4299E+02  0.000E+00  0.000E+00  0.000E+00  1.03476E+03  2.265E+00  5.519E+01  6.140E+00  2.201E-01
   1   13    7     7     3    1.4299E+02  3.1821E+00   1.3981E+02  0.000E+00  0.000E+00  0.000E+00  1.02966E+03  2.245E+00  5.510E+01  5.572E+00  1.904E-01
   1   13    6     8     1    1.4452E+02  1.5685E+00   1.4295E+02  0.000E+00  0.000E+00  0.000E+00  1.02465E+03  2.772E+00  4.020E+01  4.096E+00  1.276E-01
   1   13    5     8     2    1.4295E+02 -1.2538E+00   1.4421E+02  0.000E+00  0.000E+00  0.000E+00  1.01840E+03  2.771E+00  4.018E+01  4.094E+00 -1.021E-01
   1   13    4     8     3    1.4421E+02 -2.9660E+00   1.4717E+02  0.000E+00  0.000E+00  0.000E+00  1.01216E+03  2.786E+00  4.040E+01  4.117E+00 -2.401E-01
   1   13    3     8     4    1.4717E+02 -3.0502E+00   1.5022E+02  0.000E+00  0.000E+00  0.000E+00  1.00593E+03  2.808E+00  4.071E+01  4.149E+00 -2.451E-01
   1   13    2     8     5    1.5022E+02 -1.1120E+00   1.5134E+02  0.000E+00  0.000E+00  0.000E+00  9.99697E+02  2.822E+00  4.092E+01  4.170E+00 -8.888E-02
   1   13    1     8     6    1.5134E+02  4.1338E-01   1.5092E+02  0.000E+00  0.000E+00  0.000E+00  9.94700E+02  2.825E+00  4.096E+01  2.504E+00  5.502E-02



1
              HEAD IN LAYER   1 AT END OF TIME STEP  50 IN STRESS PERIOD    2
  ---------------------------------------------------------------------------

           1       2       3       4       5       6       7       8       9      10
 ...................................................................................
   1  1092.86 1089.46 6999.00 6999.00 6999.00 6999.00 6999.00 6999.00 6999.00 6999.00
   2  1089.90 1086.79 1081.56 6999.00 6999.00 1071.52 1070.80 1070.42 6999.00 6999.00
   3  6999.00 1079.49 1077.67 1073.69 1072.52 1070.58 1069.11 1068.36 6999.00 6999.00
   4  1068.75 1070.60 1070.27 1067.09 1065.47 1063.63 1063.86 1065.91 1065.93 6999.00
   5  1064.73 1063.94 1062.96 1061.51 1060.82 1060.76 1060.21 1062.01 1065.65 1068.08
   6  1059.83 1058.39 1057.22 1056.43 1056.29 1056.90 1057.20 1059.09 1061.90 1065.54
   7  1056.24 1053.11 1051.78 1051.21 1051.27 1051.86 1053.20 1055.46 1056.47 6999.00
   8  6999.00 1046.37 1045.77 1045.55 1045.76 1046.45 1047.83 1049.85 1050.39 6999.00
   9  6999.00 1039.09 1039.15 1039.49 1040.04 1041.05 1041.64 1042.86 1044.04 6999.00
  10  6999.00 1031.10 1031.79 1033.26 1034.32 1035.44 1036.51 1037.62 1039.31 1041.56
  11  6999.00 1021.44 1023.10 1026.84 1028.71 1030.49 1032.09 1033.56 1035.70 6999.00
  12  1001.17 1009.24 1014.52 1019.62 1023.14 1026.18 1028.57 1030.37 1034.29 6999.00
  13   994.53  999.96 1006.67 1012.88 1018.70 1024.26 1029.09 1034.10 1036.13 6999.00
  14  6999.00 1004.01 1008.96 1013.70 1018.89 1024.03 1029.48 1035.09 1039.34 6999.00
  15  6999.00 6999.00 1011.92 1015.10 1019.13 1022.39 6999.00 6999.00 6999.00 6999.00
1
  VOLUMETRIC BUDGET FOR ENTIRE MODEL AT END OF TIME STEP   50, STRESS PERIOD   2
  ------------------------------------------------------------------------------

     CUMULATIVE VOLUMES      L**3       RATES FOR THIS TIME STEP      L**3/T
     ------------------                 ------------------------

           IN:                                      IN:
           ---                                      ---
             STORAGE = 30236489728.0000               STORAGE =           0.0000
       CONSTANT HEAD =           0.0000         CONSTANT HEAD =           0.0000
               WELLS =           0.0000                 WELLS =           0.0000
                  ET =           0.0000                    ET =           0.0000
     HEAD DEP BOUNDS =   684531968.0000       HEAD DEP BOUNDS =           0.2153
            RECHARGE =  5660645376.0000              RECHARGE =           1.7937
      STREAM LEAKAGE =231761870848.0000        STREAM LEAKAGE =          43.3752

            TOTAL IN =268343541760.0000              TOTAL IN =          45.3842

          OUT:                                     OUT:
          ----                                     ----
             STORAGE = 30234253312.0000               STORAGE =       8.4987E-03
       CONSTANT HEAD =           0.0000         CONSTANT HEAD =           0.0000
               WELLS =157788012544.0000                 WELLS =           0.0000
                  ET = 68367126528.0000                    ET =          35.8284
     HEAD DEP BOUNDS =   735923520.0000       HEAD DEP BOUNDS =           0.2483
            RECHARGE =           0.0000              RECHARGE =           0.0000
      STREAM LEAKAGE = 11218829312.0000        STREAM LEAKAGE =           9.2982

           TOTAL OUT =268344131584.0000             TOTAL OUT =          45.3834

            IN - OUT =     -589824.0000              IN - OUT =       8.1635E-04

 PERCENT DISCREPANCY =          -0.00     PERCENT DISCREPANCY =           0.00






         TIME SUMMARY AT END OF TIME STEP   50 IN STRESS PERIOD    2
                    SECONDS     MINUTES      HOURS       DAYS        YEARS
                    -----------------------------------------------------------
   TIME STEP LENGTH 1.44676E+08 2.41127E+06  40188.      1674.5      4.5845    
 STRESS PERIOD TIME 1.57788E+09 2.62980E+07 4.38300E+05  18263.      50.000    
         TOTAL TIME 3.15576E+09 5.25960E+07 8.76600E+05  36525.      100.00    
1

 Run end date and time (yyyy/mm/dd hh:mm:ss): 2013/07/31 13:33:57
 Elapsed run time:  0.595 Seconds

